

         NASA-GLENN CHEMICAL EQUILIBRIUM PROGRAM CEA2, FEBRUARY 5, 2004
                   BY  BONNIE MCBRIDE AND SANFORD GORDON
      REFS: NASA RP-1311, PART I, 1994 AND NASA RP-1311, PART II, 1996

 *******************************************************************************

  
 ### CEA analysis performed on Thu 27-Feb-2025 03:52:45
  
 # Problem Type: "Rocket" (Infinite Area Combustor)
  
 prob case=_______________6352 ro equilibrium
  
 # Pressure (11 values):
 p,bar= 6, 7, 8, 9, 10, 11, 12, 13, 14, 15, 16
 # Chamber/Exit Pressure Ratio (6 values):
 pi/p= 1.0, 1.2, 1.4, 1.6, 1.8, 2.0
 # Subsonic Area Ratio (7 values):
 subar= 4.5, 4.0, 3.5, 3.0, 2.5, 2.0, 1.5
 # Supersonic Area Ratio (5 values):
 supar= 4.0, 5.0, 6.0, 7.0, 8.0
  
 # Oxidizer/Fuel Wt. ratio (21 values):
 o/f= 1, 1.1, 1.2, 1.3, 1.4, 1.5, 1.6, 1.7, 1.8, 1.9, 2, 2.1, 2.2, 2.3, 2.4, 2.5,
  2.6, 2.7, 2.8, 2.9, 3
  
 # You selected the following fuels and oxidizers:
 reac
 fuel C2H5OH(L)         wt%=100.0000  t,k= 298.000 rho,g/cc=   0.789
 oxid O2                wt%=100.0000  t,k= 298.000
  
 # You selected these options for output:
 # long version of output
 # Proportions of any products will be expressed as Mass Fractions.
 output massf
 # Heat will be expressed as siunits
 output siunits
  
 # Input prepared by this script:/var/www/sites/cearun.grc.nasa.gov/cgi-bin/CEARU
 N/prepareInputFile.cgi
  
 ### IMPORTANT:  The following line is the end of your CEA input file!
 end

 OPTIONS: TP=F  HP=F  SP=F  TV=F  UV=F  SV=F  DETN=F  SHOCK=F  REFL=F  INCD=F
 RKT=T  FROZ=F  EQL=T  IONS=F  SIUNIT=T  DEBUGF=F  SHKDBG=F  DETDBG=F  TRNSPT=F

 TRACE= 0.00E+00  S/R= 0.000000E+00  H/R= 0.000000E+00  U/R= 0.000000E+00

 Pc,BAR =     6.000000     7.000000     8.000000     9.000000    10.000000    11.000000    12.000000

 Pc,BAR =    13.000000    14.000000    15.000000    16.000000

 Pc/P =     1.0000     1.2000     1.4000     1.6000     1.8000     2.0000

 SUBSONIC AREA RATIOS =     4.5000     4.0000     3.5000     3.0000     2.5000
     2.0000     1.5000

 SUPERSONIC AREA RATIOS =     4.0000     5.0000     6.0000     7.0000     8.0000

 NFZ=  1  Mdot/Ac= 0.000000E+00  Ac/At= 0.000000E+00

    REACTANT          WT.FRAC   (ENERGY/R),K   TEMP,K  DENSITY
        EXPLODED FORMULA
 F: C2H5OH(L)        1.000000  -0.333786E+05   298.00  0.7890
          C  2.00000  H  6.00000  O  1.00000
 O: O2               1.000000  -0.530002E+00   298.00  0.0000
          O  2.00000

  SPECIES BEING CONSIDERED IN THIS SYSTEM
 (CONDENSED PHASE MAY HAVE NAME LISTED SEVERAL TIMES)
  LAST thermo.inp UPDATE:    9/09/04

  g 7/97  *C               tpis79  *CH              g 4/02  CH2            
  g 4/02  CH3              g11/00  CH2OH            g 7/00  CH3O           
  g 8/99  CH4              g 7/00  CH3OH            srd 01  CH3OOH         
  tpis79  *CO              g 9/99  *CO2             tpis91  COOH           
  tpis91  *C2              g 6/01  C2H              g 1/91  C2H2,acetylene 
  g 5/01  C2H2,vinylidene  g 4/02  CH2CO,ketene     g 3/02  O(CH)2O        
  srd 01  HO(CO)2OH        g 7/01  C2H3,vinyl       g 6/96  CH3CO,acetyl   
  g 1/00  C2H4             g 8/88  C2H4O,ethylen-o  g 8/88  CH3CHO,ethanal 
  g 6/00  CH3COOH          srd 01  OHCH2COOH        g 7/00  C2H5           
  g 7/00  C2H6             g 8/88  C2H5OH           g 7/00  CH3OCH3        
  srd 01  CH3O2CH3         g 8/00  C2O              tpis79  *C3            
  n 4/98  C3H3,1-propynl   n 4/98  C3H3,2-propynl   g 2/00  C3H4,allene    
  g 1/00  C3H4,propyne     g 5/90  C3H4,cyclo-      g 3/01  C3H5,allyl     
  g 2/00  C3H6,propylene   g 1/00  C3H6,cyclo-      g 6/01  C3H6O,propylox 
  g 6/97  C3H6O,acetone    g 1/02  C3H6O,propanal   g 7/01  C3H7,n-propyl  
  g 9/85  C3H7,i-propyl    g 2/00  C3H8             g 2/00  C3H8O,1propanol
  g 2/00  C3H8O,2propanol  g 7/88  C3O2             g tpis  *C4            
  g 7/01  C4H2,butadiyne   g 8/00  C4H4,1,3-cyclo-  n10/92  C4H6,butadiene 
  n10/93  C4H6,1butyne     n10/93  C4H6,2butyne     g 8/00  C4H6,cyclo-    
  n 4/88  C4H8,1-butene    n 4/88  C4H8,cis2-buten  n 4/88  C4H8,tr2-butene
  n 4/88  C4H8,isobutene   g 8/00  C4H8,cyclo-      g10/00  (CH3COOH)2     
  n10/84  C4H9,n-butyl     n10/84  C4H9,i-butyl     g 1/93  C4H9,s-butyl   
  g 1/93  C4H9,t-butyl     g12/00  C4H10,n-butane   g 8/00  C4H10,isobutane
  g 8/00  *C5              g 5/90  C5H6,1,3cyclo-   g 1/93  C5H8,cyclo-    
  n 4/87  C5H10,1-pentene  g 2/01  C5H10,cyclo-     n10/84  C5H11,pentyl   
  g 1/93  C5H11,t-pentyl   n10/85  C5H12,n-pentane  n10/85  C5H12,i-pentane
  n10/85  CH3C(CH3)2CH3    g 2/93  C6H2             g11/00  C6H5,phenyl    
  g 8/00  C6H5O,phenoxy    g 8/00  C6H6             g 8/00  C6H5OH,phenol  
  g 1/93  C6H10,cyclo-     n 4/87  C6H12,1-hexene   g 6/90  C6H12,cyclo-   
  n10/83  C6H13,n-hexyl    g 6/01  C6H14,n-hexane   g 7/01  C7H7,benzyl    
  g 1/93  C7H8             g12/00  C7H8O,cresol-mx  n 4/87  C7H14,1-heptene
  n10/83  C7H15,n-heptyl   n10/85  C7H16,n-heptane  n10/85  C7H16,2-methylh
  n 4/89  C8H8,styrene     n10/86  C8H10,ethylbenz  n 4/87  C8H16,1-octene 
  n10/83  C8H17,n-octyl    n 4/85  C8H18,n-octane   n 4/85  C8H18,isooctane
  n10/83  C9H19,n-nonyl    g 3/01  C10H8,naphthale  n10/83  C10H21,n-decyl 
  G12/12  C11H21           g 8/00  C12H9,o-bipheny  g 8/00  C12H10,biphenyl
  g 6/97  *H               g 1/01  HCO              g 6/01  HCCO           
  g 4/02  HO2              tpis78  *H2              g 5/01  HCHO,formaldehy
  g 6/01  HCOOH            g 8/89  H2O              g 6/99  H2O2           
  g 6/01  (HCOOH)2         g 5/97  *O               g 4/02  *OH            
  tpis89  *O2              g 8/01  O3               g 12/0  THDCPD,endo    
  g 12/0  THDCPD,exo       n 4/83  C(gr)            n 4/83  C(gr)          
  n 4/83  C(gr)            n12/84  CH3OH(L)         n12/84  C2H5OH(L)      
  n 4/85  C6H14(L),n-hexa  n10/86  C6H6(L)          g11/99  H2O(cr)        
  g 8/01  H2O(L)           g 8/01  H2O(L)         

 O/F =   1.000000

                       EFFECTIVE FUEL     EFFECTIVE OXIDANT        MIXTURE
 ENTHALPY                  h(2)/R              h(1)/R               h0/R
 (KG-MOL)(K)/KG       -0.72454409E+03     -0.16563198E-01     -0.36228032E+03

 KG-FORM.WT./KG             bi(2)               bi(1)               b0i
  *C                   0.43413669E-01      0.00000000E+00      0.21706834E-01
  *H                   0.13024101E+00      0.00000000E+00      0.65120503E-01
  *O                   0.21706834E-01      0.62502344E-01      0.42104589E-01

 POINT ITN      T            C           H           O 
 Pinf/Pt = 1.780248
 Pinf/Pt = 1.788742
 Pinf/Pt = 1.788798

              THEORETICAL ROCKET PERFORMANCE ASSUMING EQUILIBRIUM

           COMPOSITION DURING EXPANSION FROM INFINITE AREA COMBUSTOR

 Pin =    87.0 PSIA
 CASE = _______________

             REACTANT                    WT FRACTION      ENERGY      TEMP
                                          (SEE NOTE)     KJ/KG-MOL      K  
 FUEL        C2H5OH(L)                    1.0000000   -277526.835    298.000
 OXIDANT     O2                           1.0000000        -4.407    298.000

 O/F=    1.00000  %FUEL= 50.000000  R,EQ.RATIO= 1.804409  PHI,EQ.RATIO= 2.083778

                 CHAMBER   THROAT     EXIT     EXIT     EXIT     EXIT     EXIT     EXIT
 Pinf/P            1.0000   1.7888   1.0000   1.2000   1.4000   1.6000   1.8000   2.0000
 P, BAR            6.0000   3.3542   6.0000   5.0000   4.2857   3.7500   3.3333   3.0000
 T, K             2422.73  2184.08  2422.73  2346.82  2283.35  2228.99  2181.58  2139.65
 RHO, KG/CU M    5.4757-1 3.4007-1 5.4757-1 4.7135-1 4.1542-1 3.7246-1 3.3834-1 3.1052-1
 H, KJ/KG        -3012.18 -3617.29 -3012.18 -3208.77 -3370.04 -3506.13 -3623.44 -3726.24
 U, KJ/KG        -4107.94 -4603.63 -4107.94 -4269.55 -4401.71 -4512.95 -4608.64 -4692.35
 G, KJ/KG        -35615.4 -33009.0 -35615.4 -34790.4 -34097.6 -33502.2 -32981.5 -32520.0
 S, KJ/(KG)(K)    13.4572  13.4572  13.4572  13.4572  13.4572  13.4572  13.4572  13.4572

 M, (1/n)          18.383   18.411   18.383   18.395   18.402   18.407   18.411   18.414
 (dLV/dLP)t      -1.00120 -1.00044 -1.00120 -1.00089 -1.00069 -1.00054 -1.00044 -1.00036
 (dLV/dLT)p        1.0283   1.0114   1.0283   1.0217   1.0171   1.0138   1.0113   1.0094
 Cp, KJ/(KG)(K)    2.6925   2.4913   2.6925   2.6180   2.5634   2.5220   2.4897   2.4639
 GAMMAs            1.2142   1.2270   1.2142   1.2185   1.2220   1.2248   1.2271   1.2290
 SON VEL,M/SEC     1153.5   1100.1   1153.5   1136.9   1122.8   1110.5   1099.5   1089.7
 MACH NUMBER        0.000    1.000    0.000    0.552    0.753    0.895    1.006    1.097

 PERFORMANCE PARAMETERS

 Ae/At                      1.0000 641763.2   1.2658   1.0645   1.0106   1.0000   1.0081
 CSTAR, M/SEC               1603.8   1603.8   1603.8   1603.8   1603.8   1603.8   1603.8
 CF                         0.6859   0.0000   0.3910   0.5275   0.6197   0.6894   0.7451
 Ivac, M/SEC                1996.7*********   2318.8   2065.5   2006.9   1996.7   2003.5
 Isp, M/SEC                 1100.1      0.0    627.0    846.0    993.9   1105.7   1195.0

 MASS FRACTIONS

 *CO              0.51356  0.50551  0.51356  0.51126  0.50917  0.50723  0.50542  0.50371
 *CO2             0.14840  0.16104  0.14840  0.15200  0.15530  0.15835  0.16120  0.16388
 *H               0.00021  0.00008  0.00021  0.00016  0.00013  0.00010  0.00008  0.00007
 *H2              0.03115  0.03183  0.03115  0.03135  0.03153  0.03169  0.03183  0.03197
 H2O              0.30584  0.30131  0.30584  0.30464  0.30347  0.30234  0.30125  0.30021
 *O               0.00001  0.00000  0.00001  0.00000  0.00000  0.00000  0.00000  0.00000
 *OH              0.00082  0.00023  0.00082  0.00056  0.00040  0.00030  0.00022  0.00017
 *O2              0.00001  0.00000  0.00001  0.00000  0.00000  0.00000  0.00000  0.00000

  * THERMODYNAMIC PROPERTIES FITTED TO 20000.K

    PRODUCTS WHICH WERE CONSIDERED BUT WHOSE MASS FRACTIONS
    WERE LESS THAN 5.000000E-06 FOR ALL ASSIGNED CONDITIONS

 *C              *CH             CH2             CH3             CH2OH          
 CH3O            CH4             CH3OH           CH3OOH          COOH           
 *C2             C2H             C2H2,acetylene  C2H2,vinylidene CH2CO,ketene   
 O(CH)2O         HO(CO)2OH       C2H3,vinyl      CH3CO,acetyl    C2H4           
 C2H4O,ethylen-o CH3CHO,ethanal  CH3COOH         OHCH2COOH       C2H5           
 C2H6            C2H5OH          CH3OCH3         CH3O2CH3        C2O            
 *C3             C3H3,1-propynl  C3H3,2-propynl  C3H4,allene     C3H4,propyne   
 C3H4,cyclo-     C3H5,allyl      C3H6,propylene  C3H6,cyclo-     C3H6O,propylox 
 C3H6O,acetone   C3H6O,propanal  C3H7,n-propyl   C3H7,i-propyl   C3H8           
 C3H8O,1propanol C3H8O,2propanol C3O2            *C4             C4H2,butadiyne 
 C4H4,1,3-cyclo- C4H6,butadiene  C4H6,1butyne    C4H6,2butyne    C4H6,cyclo-    
 C4H8,1-butene   C4H8,cis2-buten C4H8,tr2-butene C4H8,isobutene  C4H8,cyclo-    
 (CH3COOH)2      C4H9,n-butyl    C4H9,i-butyl    C4H9,s-butyl    C4H9,t-butyl   
 C4H10,n-butane  C4H10,isobutane *C5             C5H6,1,3cyclo-  C5H8,cyclo-    
 C5H10,1-pentene C5H10,cyclo-    C5H11,pentyl    C5H11,t-pentyl  C5H12,n-pentane
 C5H12,i-pentane CH3C(CH3)2CH3   C6H2            C6H5,phenyl     C6H5O,phenoxy  
 C6H6            C6H5OH,phenol   C6H10,cyclo-    C6H12,1-hexene  C6H12,cyclo-   
 C6H13,n-hexyl   C6H14,n-hexane  C7H7,benzyl     C7H8            C7H8O,cresol-mx
 C7H14,1-heptene C7H15,n-heptyl  C7H16,n-heptane C7H16,2-methylh C8H8,styrene   
 C8H10,ethylbenz C8H16,1-octene  C8H17,n-octyl   C8H18,n-octane  C8H18,isooctane
 C9H19,n-nonyl   C10H8,naphthale C10H21,n-decyl  C11H21          C12H9,o-bipheny
 C12H10,biphenyl HCO             HCCO            HO2             HCHO,formaldehy
 HCOOH           H2O2            (HCOOH)2        O3              THDCPD,endo    
 THDCPD,exo      C(gr)           CH3OH(L)        C2H5OH(L)       C6H14(L),n-hexa
 C6H6(L)         H2O(cr)         H2O(L)         

 NOTE. WEIGHT FRACTION OF FUEL IN TOTAL FUELS AND OF OXIDANT IN TOTAL OXIDANTS

              THEORETICAL ROCKET PERFORMANCE ASSUMING EQUILIBRIUM

           COMPOSITION DURING EXPANSION FROM INFINITE AREA COMBUSTOR

 Pin =    87.0 PSIA
 CASE = _______________

             REACTANT                    WT FRACTION      ENERGY      TEMP
                                          (SEE NOTE)     KJ/KG-MOL      K  
 FUEL        C2H5OH(L)                    1.0000000   -277526.835    298.000
 OXIDANT     O2                           1.0000000        -4.407    298.000

 O/F=    1.00000  %FUEL= 50.000000  R,EQ.RATIO= 1.804409  PHI,EQ.RATIO= 2.083778

                 CHAMBER   THROAT     EXIT     EXIT     EXIT     EXIT     EXIT     EXIT
 Pinf/P            1.0000   1.7888   1.0108   1.0137   1.0181   1.0250   1.0370   1.0608
 P, BAR            6.0000   3.3542   5.9361   5.9188   5.8933   5.8536   5.7861   5.6563
 T, K             2422.73  2184.08  2418.24  2417.02  2415.22  2412.39  2407.55  2398.08
 RHO, KG/CU M    5.4757-1 3.4007-1 5.4276-1 5.4146-1 5.3954-1 5.3654-1 5.3145-1 5.2162-1
 H, KJ/KG        -3012.18 -3617.29 -3023.91 -3027.10 -3031.81 -3039.19 -3051.83 -3076.48
 U, KJ/KG        -4107.94 -4603.63 -4117.60 -4120.22 -4124.10 -4130.17 -4140.57 -4160.86
 G, KJ/KG        -35615.4 -33009.0 -35566.8 -35553.5 -35534.0 -35503.3 -35450.8 -35348.0
 S, KJ/(KG)(K)    13.4572  13.4572  13.4572  13.4572  13.4572  13.4572  13.4572  13.4572

 M, (1/n)          18.383   18.411   18.384   18.384   18.385   18.385   18.386   18.387
 (dLV/dLP)t      -1.00120 -1.00044 -1.00118 -1.00117 -1.00116 -1.00115 -1.00113 -1.00109
 (dLV/dLT)p        1.0283   1.0114   1.0279   1.0278   1.0276   1.0274   1.0269   1.0261
 Cp, KJ/(KG)(K)    2.6925   2.4913   2.6878   2.6866   2.6847   2.6818   2.6768   2.6672
 GAMMAs            1.2142   1.2270   1.2145   1.2146   1.2147   1.2148   1.2151   1.2157
 SON VEL,M/SEC     1153.5   1100.1   1152.5   1152.2   1151.9   1151.2   1150.2   1148.1
 MACH NUMBER        0.000    1.000    0.133    0.150    0.172    0.202    0.245    0.312

 PERFORMANCE PARAMETERS

 Ae/At                      1.0000   4.5000   4.0000   3.5000   3.0000   2.5000   2.0000
 CSTAR, M/SEC               1603.8   1603.8   1603.8   1603.8   1603.8   1603.8   1603.8
 CF                         0.6859   0.0955   0.1077   0.1235   0.1449   0.1756   0.2236
 Ivac, M/SEC                1996.7   7293.6   6501.2   5711.7   4926.6   4148.2   3382.5
 Isp, M/SEC                 1100.1    153.2    172.7    198.1    232.4    281.6    358.6

 MASS FRACTIONS

 *CO              0.51356  0.50551  0.51343  0.51339  0.51334  0.51326  0.51312  0.51284
 *CO2             0.14840  0.16104  0.14860  0.14866  0.14874  0.14887  0.14909  0.14953
 *H               0.00021  0.00008  0.00021  0.00021  0.00021  0.00020  0.00020  0.00019
 *H2              0.03115  0.03183  0.03117  0.03117  0.03117  0.03118  0.03119  0.03122
 H2O              0.30584  0.30131  0.30578  0.30576  0.30573  0.30569  0.30562  0.30548
 *O               0.00001  0.00000  0.00001  0.00001  0.00001  0.00001  0.00001  0.00001
 *OH              0.00082  0.00023  0.00080  0.00080  0.00079  0.00078  0.00076  0.00073
 *O2              0.00001  0.00000  0.00001  0.00001  0.00001  0.00001  0.00001  0.00000

  * THERMODYNAMIC PROPERTIES FITTED TO 20000.K

    PRODUCTS WHICH WERE CONSIDERED BUT WHOSE MASS FRACTIONS
    WERE LESS THAN 5.000000E-06 FOR ALL ASSIGNED CONDITIONS

 *C              *CH             CH2             CH3             CH2OH          
 CH3O            CH4             CH3OH           CH3OOH          COOH           
 *C2             C2H             C2H2,acetylene  C2H2,vinylidene CH2CO,ketene   
 O(CH)2O         HO(CO)2OH       C2H3,vinyl      CH3CO,acetyl    C2H4           
 C2H4O,ethylen-o CH3CHO,ethanal  CH3COOH         OHCH2COOH       C2H5           
 C2H6            C2H5OH          CH3OCH3         CH3O2CH3        C2O            
 *C3             C3H3,1-propynl  C3H3,2-propynl  C3H4,allene     C3H4,propyne   
 C3H4,cyclo-     C3H5,allyl      C3H6,propylene  C3H6,cyclo-     C3H6O,propylox 
 C3H6O,acetone   C3H6O,propanal  C3H7,n-propyl   C3H7,i-propyl   C3H8           
 C3H8O,1propanol C3H8O,2propanol C3O2            *C4             C4H2,butadiyne 
 C4H4,1,3-cyclo- C4H6,butadiene  C4H6,1butyne    C4H6,2butyne    C4H6,cyclo-    
 C4H8,1-butene   C4H8,cis2-buten C4H8,tr2-butene C4H8,isobutene  C4H8,cyclo-    
 (CH3COOH)2      C4H9,n-butyl    C4H9,i-butyl    C4H9,s-butyl    C4H9,t-butyl   
 C4H10,n-butane  C4H10,isobutane *C5             C5H6,1,3cyclo-  C5H8,cyclo-    
 C5H10,1-pentene C5H10,cyclo-    C5H11,pentyl    C5H11,t-pentyl  C5H12,n-pentane
 C5H12,i-pentane CH3C(CH3)2CH3   C6H2            C6H5,phenyl     C6H5O,phenoxy  
 C6H6            C6H5OH,phenol   C6H10,cyclo-    C6H12,1-hexene  C6H12,cyclo-   
 C6H13,n-hexyl   C6H14,n-hexane  C7H7,benzyl     C7H8            C7H8O,cresol-mx
 C7H14,1-heptene C7H15,n-heptyl  C7H16,n-heptane C7H16,2-methylh C8H8,styrene   
 C8H10,ethylbenz C8H16,1-octene  C8H17,n-octyl   C8H18,n-octane  C8H18,isooctane
 C9H19,n-nonyl   C10H8,naphthale C10H21,n-decyl  C11H21          C12H9,o-bipheny
 C12H10,biphenyl HCO             HCCO            HO2             HCHO,formaldehy
 HCOOH           H2O2            (HCOOH)2        O3              THDCPD,endo    
 THDCPD,exo      C(gr)           CH3OH(L)        C2H5OH(L)       C6H14(L),n-hexa
 C6H6(L)         H2O(cr)         H2O(L)         

 NOTE. WEIGHT FRACTION OF FUEL IN TOTAL FUELS AND OF OXIDANT IN TOTAL OXIDANTS

              THEORETICAL ROCKET PERFORMANCE ASSUMING EQUILIBRIUM

           COMPOSITION DURING EXPANSION FROM INFINITE AREA COMBUSTOR

 Pin =    87.0 PSIA
 CASE = _______________

             REACTANT                    WT FRACTION      ENERGY      TEMP
                                          (SEE NOTE)     KJ/KG-MOL      K  
 FUEL        C2H5OH(L)                    1.0000000   -277526.835    298.000
 OXIDANT     O2                           1.0000000        -4.407    298.000

 O/F=    1.00000  %FUEL= 50.000000  R,EQ.RATIO= 1.804409  PHI,EQ.RATIO= 2.083778

                 CHAMBER   THROAT     EXIT     EXIT     EXIT     EXIT     EXIT     EXIT
 Pinf/P            1.0000   1.7888   1.1226   24.893   34.225   44.184   54.676   65.631
 P, BAR            6.0000   3.3542   5.3445  0.24103  0.17531  0.13580  0.10974  0.09142
 T, K             2422.73  2184.08  2374.46  1313.54  1234.87  1175.69  1128.94  1090.71
 RHO, KG/CU M    5.4757-1 3.4007-1 4.9786-1 4.0668-2 3.1464-2 2.5599-2 2.1543-2 1.8576-2
 H, KJ/KG        -3012.18 -3617.29 -3137.66 -5656.68 -5839.64 -5978.50 -6089.26 -6180.70
 U, KJ/KG        -4107.94 -4603.63 -4211.16 -6249.35 -6396.82 -6508.98 -6598.64 -6672.83
 G, KJ/KG        -35615.4 -33009.0 -35091.4 -23333.3 -22457.5 -21800.1 -21281.7 -20858.6
 S, KJ/(KG)(K)    13.4572  13.4572  13.4572  13.4572  13.4572  13.4572  13.4572  13.4572

 M, (1/n)          18.383   18.411   18.391   18.427   18.427   18.427   18.427   18.427
 (dLV/dLP)t      -1.00120 -1.00044 -1.00100 -1.00000 -1.00000 -1.00000 -1.00000 -1.00001
 (dLV/dLT)p        1.0283   1.0114   1.0240   1.0000   1.0000   1.0000   1.0001   1.0001
 Cp, KJ/(KG)(K)    2.6925   2.4913   2.6439   2.3166   2.3364   2.3583   2.3808   2.4031
 GAMMAs            1.2142   1.2270   1.2170   1.2419   1.2394   1.2366   1.2339   1.2312
 SON VEL,M/SEC     1153.5   1100.1   1143.0    857.9    831.0    809.9    792.8    778.4
 MACH NUMBER        0.000    1.000    0.438    2.681    2.862    3.007    3.129    3.234

 PERFORMANCE PARAMETERS

 Ae/At                      1.0000   1.5000   4.0000   5.0000   6.0000   7.0000   8.0000
 CSTAR, M/SEC               1603.8   1603.8   1603.8   1603.8   1603.8   1603.8   1603.8
 CF                         0.6859   0.3124   1.4339   1.4827   1.5187   1.5468   1.5696
 Ivac, M/SEC                1996.7   2643.9   2557.5   2612.3   2653.5   2686.1   2712.8
 Isp, M/SEC                 1100.1    501.0   2299.8   2378.0   2435.7   2480.8   2517.3

 MASS FRACTIONS

 *CO              0.51356  0.50551  0.51212  0.42940  0.41407  0.40067  0.38874  0.37800
 *CO2             0.14840  0.16104  0.15065  0.28064  0.30472  0.32578  0.34451  0.36138
 *H               0.00021  0.00008  0.00018  0.00000  0.00000  0.00000  0.00000  0.00000
 *H2              0.03115  0.03183  0.03128  0.03737  0.03848  0.03944  0.04030  0.04107
 H2O              0.30584  0.30131  0.30511  0.25259  0.24274  0.23412  0.22645  0.21954
 *O               0.00001  0.00000  0.00000  0.00000  0.00000  0.00000  0.00000  0.00000
 *OH              0.00082  0.00023  0.00065  0.00000  0.00000  0.00000  0.00000  0.00000
 *O2              0.00001  0.00000  0.00000  0.00000  0.00000  0.00000  0.00000  0.00000

  * THERMODYNAMIC PROPERTIES FITTED TO 20000.K

    PRODUCTS WHICH WERE CONSIDERED BUT WHOSE MASS FRACTIONS
    WERE LESS THAN 5.000000E-06 FOR ALL ASSIGNED CONDITIONS

 *C              *CH             CH2             CH3             CH2OH          
 CH3O            CH4             CH3OH           CH3OOH          COOH           
 *C2             C2H             C2H2,acetylene  C2H2,vinylidene CH2CO,ketene   
 O(CH)2O         HO(CO)2OH       C2H3,vinyl      CH3CO,acetyl    C2H4           
 C2H4O,ethylen-o CH3CHO,ethanal  CH3COOH         OHCH2COOH       C2H5           
 C2H6            C2H5OH          CH3OCH3         CH3O2CH3        C2O            
 *C3             C3H3,1-propynl  C3H3,2-propynl  C3H4,allene     C3H4,propyne   
 C3H4,cyclo-     C3H5,allyl      C3H6,propylene  C3H6,cyclo-     C3H6O,propylox 
 C3H6O,acetone   C3H6O,propanal  C3H7,n-propyl   C3H7,i-propyl   C3H8           
 C3H8O,1propanol C3H8O,2propanol C3O2            *C4             C4H2,butadiyne 
 C4H4,1,3-cyclo- C4H6,butadiene  C4H6,1butyne    C4H6,2butyne    C4H6,cyclo-    
 C4H8,1-butene   C4H8,cis2-buten C4H8,tr2-butene C4H8,isobutene  C4H8,cyclo-    
 (CH3COOH)2      C4H9,n-butyl    C4H9,i-butyl    C4H9,s-butyl    C4H9,t-butyl   
 C4H10,n-butane  C4H10,isobutane *C5             C5H6,1,3cyclo-  C5H8,cyclo-    
 C5H10,1-pentene C5H10,cyclo-    C5H11,pentyl    C5H11,t-pentyl  C5H12,n-pentane
 C5H12,i-pentane CH3C(CH3)2CH3   C6H2            C6H5,phenyl     C6H5O,phenoxy  
 C6H6            C6H5OH,phenol   C6H10,cyclo-    C6H12,1-hexene  C6H12,cyclo-   
 C6H13,n-hexyl   C6H14,n-hexane  C7H7,benzyl     C7H8            C7H8O,cresol-mx
 C7H14,1-heptene C7H15,n-heptyl  C7H16,n-heptane C7H16,2-methylh C8H8,styrene   
 C8H10,ethylbenz C8H16,1-octene  C8H17,n-octyl   C8H18,n-octane  C8H18,isooctane
 C9H19,n-nonyl   C10H8,naphthale C10H21,n-decyl  C11H21          C12H9,o-bipheny
 C12H10,biphenyl HCO             HCCO            HO2             HCHO,formaldehy
 HCOOH           H2O2            (HCOOH)2        O3              THDCPD,endo    
 THDCPD,exo      C(gr)           CH3OH(L)        C2H5OH(L)       C6H14(L),n-hexa
 C6H6(L)         H2O(cr)         H2O(L)         

 NOTE. WEIGHT FRACTION OF FUEL IN TOTAL FUELS AND OF OXIDANT IN TOTAL OXIDANTS

 POINT ITN      T            C           H           O 
 Pinf/Pt = 1.780938
 Pinf/Pt = 1.789119
 Pinf/Pt = 1.789171

              THEORETICAL ROCKET PERFORMANCE ASSUMING EQUILIBRIUM

           COMPOSITION DURING EXPANSION FROM INFINITE AREA COMBUSTOR

 Pin =   101.5 PSIA
 CASE = _______________

             REACTANT                    WT FRACTION      ENERGY      TEMP
                                          (SEE NOTE)     KJ/KG-MOL      K  
 FUEL        C2H5OH(L)                    1.0000000   -277526.835    298.000
 OXIDANT     O2                           1.0000000        -4.407    298.000

 O/F=    1.00000  %FUEL= 50.000000  R,EQ.RATIO= 1.804409  PHI,EQ.RATIO= 2.083778

                 CHAMBER   THROAT     EXIT     EXIT     EXIT     EXIT     EXIT     EXIT
 Pinf/P            1.0000   1.7892   1.0000   1.2000   1.4000   1.6000   1.8000   2.0000
 P, BAR            7.0000   3.9124   7.0000   5.8333   5.0000   4.3750   3.8889   3.5000
 T, K             2424.45  2184.58  2424.45  2348.10  2284.31  2229.73  2182.16  2140.10
 RHO, KG/CU M    6.3848-1 3.9660-1 6.3848-1 5.4968-1 4.8449-1 4.3443-1 3.9465-1 3.6222-1
 H, KJ/KG        -3012.18 -3617.72 -3012.18 -3208.86 -3370.19 -3506.33 -3623.67 -3726.48
 U, KJ/KG        -4108.54 -4604.22 -4108.54 -4270.09 -4402.20 -4513.41 -4609.06 -4692.74
 G, KJ/KG        -35469.6 -32863.9 -35469.6 -34644.0 -33951.5 -33356.9 -32837.4 -32377.1
 S, KJ/(KG)(K)    13.3875  13.3875  13.3875  13.3875  13.3875  13.3875  13.3875  13.3875

 M, (1/n)          18.386   18.412   18.386   18.397   18.404   18.409   18.412   18.415
 (dLV/dLP)t      -1.00112 -1.00041 -1.00112 -1.00083 -1.00064 -1.00050 -1.00041 -1.00033
 (dLV/dLT)p        1.0264   1.0106   1.0264   1.0202   1.0159   1.0128   1.0105   1.0087
 Cp, KJ/(KG)(K)    2.6718   2.4817   2.6718   2.6013   2.5498   2.5107   2.4802   2.4559
 GAMMAs            1.2154   1.2276   1.2154   1.2195   1.2228   1.2255   1.2278   1.2296
 SON VEL,M/SEC     1154.3   1100.5   1154.3   1137.6   1123.4   1110.9   1099.9   1090.0
 MACH NUMBER        0.000    1.000     -nan    0.551    0.753    0.895    1.005    1.097

 PERFORMANCE PARAMETERS

 Ae/At                      1.0000     -nan   1.2660   1.0646   1.0106   1.0000   1.0081
 CSTAR, M/SEC               1603.9   1603.9   1603.9   1603.9   1603.9   1603.9   1603.9
 CF                         0.6862     -nan   0.3910   0.5276   0.6198   0.6895   0.7452
 Ivac, M/SEC                1996.9     -nan   2319.2   2065.8   2007.2   1996.9   2003.7
 Isp, M/SEC                 1100.5     -nan    627.2    846.2    994.1   1105.9   1195.2

 MASS FRACTIONS

 *CO              0.51362  0.50554  0.51362  0.51131  0.50921  0.50726  0.50544  0.50373
 *CO2             0.14831  0.16100  0.14831  0.15193  0.15523  0.15829  0.16115  0.16384
 *H               0.00020  0.00008  0.00020  0.00015  0.00012  0.00009  0.00008  0.00006
 *H2              0.03116  0.03183  0.03116  0.03136  0.03153  0.03169  0.03184  0.03197
 H2O              0.30594  0.30134  0.30594  0.30472  0.30353  0.30238  0.30128  0.30023
 *O               0.00001  0.00000  0.00001  0.00000  0.00000  0.00000  0.00000  0.00000
 *OH              0.00077  0.00021  0.00077  0.00053  0.00037  0.00027  0.00021  0.00016

  * THERMODYNAMIC PROPERTIES FITTED TO 20000.K

    PRODUCTS WHICH WERE CONSIDERED BUT WHOSE MASS FRACTIONS
    WERE LESS THAN 5.000000E-06 FOR ALL ASSIGNED CONDITIONS

 *C              *CH             CH2             CH3             CH2OH          
 CH3O            CH4             CH3OH           CH3OOH          COOH           
 *C2             C2H             C2H2,acetylene  C2H2,vinylidene CH2CO,ketene   
 O(CH)2O         HO(CO)2OH       C2H3,vinyl      CH3CO,acetyl    C2H4           
 C2H4O,ethylen-o CH3CHO,ethanal  CH3COOH         OHCH2COOH       C2H5           
 C2H6            C2H5OH          CH3OCH3         CH3O2CH3        C2O            
 *C3             C3H3,1-propynl  C3H3,2-propynl  C3H4,allene     C3H4,propyne   
 C3H4,cyclo-     C3H5,allyl      C3H6,propylene  C3H6,cyclo-     C3H6O,propylox 
 C3H6O,acetone   C3H6O,propanal  C3H7,n-propyl   C3H7,i-propyl   C3H8           
 C3H8O,1propanol C3H8O,2propanol C3O2            *C4             C4H2,butadiyne 
 C4H4,1,3-cyclo- C4H6,butadiene  C4H6,1butyne    C4H6,2butyne    C4H6,cyclo-    
 C4H8,1-butene   C4H8,cis2-buten C4H8,tr2-butene C4H8,isobutene  C4H8,cyclo-    
 (CH3COOH)2      C4H9,n-butyl    C4H9,i-butyl    C4H9,s-butyl    C4H9,t-butyl   
 C4H10,n-butane  C4H10,isobutane *C5             C5H6,1,3cyclo-  C5H8,cyclo-    
 C5H10,1-pentene C5H10,cyclo-    C5H11,pentyl    C5H11,t-pentyl  C5H12,n-pentane
 C5H12,i-pentane CH3C(CH3)2CH3   C6H2            C6H5,phenyl     C6H5O,phenoxy  
 C6H6            C6H5OH,phenol   C6H10,cyclo-    C6H12,1-hexene  C6H12,cyclo-   
 C6H13,n-hexyl   C6H14,n-hexane  C7H7,benzyl     C7H8            C7H8O,cresol-mx
 C7H14,1-heptene C7H15,n-heptyl  C7H16,n-heptane C7H16,2-methylh C8H8,styrene   
 C8H10,ethylbenz C8H16,1-octene  C8H17,n-octyl   C8H18,n-octane  C8H18,isooctane
 C9H19,n-nonyl   C10H8,naphthale C10H21,n-decyl  C11H21          C12H9,o-bipheny
 C12H10,biphenyl HCO             HCCO            HO2             HCHO,formaldehy
 HCOOH           H2O2            (HCOOH)2        *O2             O3             
 THDCPD,endo     THDCPD,exo      C(gr)           CH3OH(L)        C2H5OH(L)      
 C6H14(L),n-hexa C6H6(L)         H2O(cr)         H2O(L)         

 NOTE. WEIGHT FRACTION OF FUEL IN TOTAL FUELS AND OF OXIDANT IN TOTAL OXIDANTS

              THEORETICAL ROCKET PERFORMANCE ASSUMING EQUILIBRIUM

           COMPOSITION DURING EXPANSION FROM INFINITE AREA COMBUSTOR

 Pin =   101.5 PSIA
 CASE = _______________

             REACTANT                    WT FRACTION      ENERGY      TEMP
                                          (SEE NOTE)     KJ/KG-MOL      K  
 FUEL        C2H5OH(L)                    1.0000000   -277526.835    298.000
 OXIDANT     O2                           1.0000000        -4.407    298.000

 O/F=    1.00000  %FUEL= 50.000000  R,EQ.RATIO= 1.804409  PHI,EQ.RATIO= 2.083778

                 CHAMBER   THROAT     EXIT     EXIT     EXIT     EXIT     EXIT     EXIT
 Pinf/P            1.0000   1.7892   1.0108   1.0137   1.0181   1.0250   1.0370   1.0608
 P, BAR            7.0000   3.9124   6.9254   6.9052   6.8755   6.8291   6.7504   6.5989
 T, K             2424.45  2184.58  2419.94  2418.71  2416.90  2414.05  2409.17  2399.64
 RHO, KG/CU M    6.3848-1 3.9660-1 6.3287-1 6.3135-1 6.2912-1 6.2563-1 6.1969-1 6.0823-1
 H, KJ/KG        -3012.18 -3617.72 -3023.93 -3027.12 -3031.83 -3039.22 -3051.87 -3076.55
 U, KJ/KG        -4108.54 -4604.22 -4118.20 -4120.83 -4124.70 -4130.78 -4141.18 -4161.47
 G, KJ/KG        -35469.6 -32863.9 -35420.9 -35407.6 -35388.1 -35357.3 -35304.7 -35201.7
 S, KJ/(KG)(K)    13.3875  13.3875  13.3875  13.3875  13.3875  13.3875  13.3875  13.3875

 M, (1/n)          18.386   18.412   18.387   18.387   18.388   18.388   18.389   18.390
 (dLV/dLP)t      -1.00112 -1.00041 -1.00110 -1.00109 -1.00109 -1.00107 -1.00106 -1.00102
 (dLV/dLT)p        1.0264   1.0106   1.0260   1.0259   1.0258   1.0255   1.0251   1.0243
 Cp, KJ/(KG)(K)    2.6718   2.4817   2.6673   2.6661   2.6644   2.6616   2.6569   2.6478
 GAMMAs            1.2154   1.2276   1.2156   1.2157   1.2158   1.2159   1.2162   1.2167
 SON VEL,M/SEC     1154.3   1100.5   1153.4   1153.1   1152.7   1152.1   1151.0   1148.9
 MACH NUMBER        0.000    1.000    0.133    0.150    0.172    0.202    0.245    0.312

 PERFORMANCE PARAMETERS

 Ae/At                      1.0000   4.5000   4.0000   3.5000   3.0000   2.5000   2.0000
 CSTAR, M/SEC               1603.9   1603.9   1603.9   1603.9   1603.9   1603.9   1603.9
 CF                         0.6862   0.0956   0.1078   0.1236   0.1450   0.1757   0.2237
 Ivac, M/SEC                1996.9   7293.8   6501.3   5711.9   4926.8   4148.4   3382.7
 Isp, M/SEC                 1100.5    153.2    172.8    198.2    232.5    281.7    358.8

 MASS FRACTIONS

 *CO              0.51362  0.50554  0.51349  0.51345  0.51340  0.51332  0.51317  0.51289
 *CO2             0.14831  0.16100  0.14851  0.14857  0.14865  0.14878  0.14900  0.14945
 *H               0.00020  0.00008  0.00019  0.00019  0.00019  0.00019  0.00019  0.00018
 *H2              0.03116  0.03183  0.03117  0.03118  0.03118  0.03119  0.03120  0.03122
 H2O              0.30594  0.30134  0.30587  0.30585  0.30583  0.30578  0.30571  0.30557
 *O               0.00001  0.00000  0.00001  0.00001  0.00001  0.00001  0.00000  0.00000
 *OH              0.00077  0.00021  0.00075  0.00075  0.00074  0.00073  0.00071  0.00068

  * THERMODYNAMIC PROPERTIES FITTED TO 20000.K

    PRODUCTS WHICH WERE CONSIDERED BUT WHOSE MASS FRACTIONS
    WERE LESS THAN 5.000000E-06 FOR ALL ASSIGNED CONDITIONS

 *C              *CH             CH2             CH3             CH2OH          
 CH3O            CH4             CH3OH           CH3OOH          COOH           
 *C2             C2H             C2H2,acetylene  C2H2,vinylidene CH2CO,ketene   
 O(CH)2O         HO(CO)2OH       C2H3,vinyl      CH3CO,acetyl    C2H4           
 C2H4O,ethylen-o CH3CHO,ethanal  CH3COOH         OHCH2COOH       C2H5           
 C2H6            C2H5OH          CH3OCH3         CH3O2CH3        C2O            
 *C3             C3H3,1-propynl  C3H3,2-propynl  C3H4,allene     C3H4,propyne   
 C3H4,cyclo-     C3H5,allyl      C3H6,propylene  C3H6,cyclo-     C3H6O,propylox 
 C3H6O,acetone   C3H6O,propanal  C3H7,n-propyl   C3H7,i-propyl   C3H8           
 C3H8O,1propanol C3H8O,2propanol C3O2            *C4             C4H2,butadiyne 
 C4H4,1,3-cyclo- C4H6,butadiene  C4H6,1butyne    C4H6,2butyne    C4H6,cyclo-    
 C4H8,1-butene   C4H8,cis2-buten C4H8,tr2-butene C4H8,isobutene  C4H8,cyclo-    
 (CH3COOH)2      C4H9,n-butyl    C4H9,i-butyl    C4H9,s-butyl    C4H9,t-butyl   
 C4H10,n-butane  C4H10,isobutane *C5             C5H6,1,3cyclo-  C5H8,cyclo-    
 C5H10,1-pentene C5H10,cyclo-    C5H11,pentyl    C5H11,t-pentyl  C5H12,n-pentane
 C5H12,i-pentane CH3C(CH3)2CH3   C6H2            C6H5,phenyl     C6H5O,phenoxy  
 C6H6            C6H5OH,phenol   C6H10,cyclo-    C6H12,1-hexene  C6H12,cyclo-   
 C6H13,n-hexyl   C6H14,n-hexane  C7H7,benzyl     C7H8            C7H8O,cresol-mx
 C7H14,1-heptene C7H15,n-heptyl  C7H16,n-heptane C7H16,2-methylh C8H8,styrene   
 C8H10,ethylbenz C8H16,1-octene  C8H17,n-octyl   C8H18,n-octane  C8H18,isooctane
 C9H19,n-nonyl   C10H8,naphthale C10H21,n-decyl  C11H21          C12H9,o-bipheny
 C12H10,biphenyl HCO             HCCO            HO2             HCHO,formaldehy
 HCOOH           H2O2            (HCOOH)2        *O2             O3             
 THDCPD,endo     THDCPD,exo      C(gr)           CH3OH(L)        C2H5OH(L)      
 C6H14(L),n-hexa C6H6(L)         H2O(cr)         H2O(L)         

 NOTE. WEIGHT FRACTION OF FUEL IN TOTAL FUELS AND OF OXIDANT IN TOTAL OXIDANTS

              THEORETICAL ROCKET PERFORMANCE ASSUMING EQUILIBRIUM

           COMPOSITION DURING EXPANSION FROM INFINITE AREA COMBUSTOR

 Pin =   101.5 PSIA
 CASE = _______________

             REACTANT                    WT FRACTION      ENERGY      TEMP
                                          (SEE NOTE)     KJ/KG-MOL      K  
 FUEL        C2H5OH(L)                    1.0000000   -277526.835    298.000
 OXIDANT     O2                           1.0000000        -4.407    298.000

 O/F=    1.00000  %FUEL= 50.000000  R,EQ.RATIO= 1.804409  PHI,EQ.RATIO= 2.083778

                 CHAMBER   THROAT     EXIT     EXIT     EXIT     EXIT     EXIT     EXIT
 Pinf/P            1.0000   1.7892   1.1227   24.898   34.231   44.191   54.684   65.641
 P, BAR            7.0000   3.9124   6.2349  0.28115  0.20449  0.15840  0.12801  0.10664
 T, K             2424.45  2184.58  2375.87  1313.40  1234.74  1175.58  1128.83  1090.60
 RHO, KG/CU M    6.3848-1 3.9660-1 5.8054-1 4.7442-2 3.6705-2 2.9863-2 2.5132-2 2.1671-2
 H, KJ/KG        -3012.18 -3617.72 -3137.78 -5657.00 -5839.94 -5978.78 -6089.52 -6180.95
 U, KJ/KG        -4108.54 -4604.22 -4211.77 -6249.61 -6397.06 -6509.20 -6598.86 -6673.04
 G, KJ/KG        -35469.6 -32863.9 -34944.8 -23240.2 -22370.0 -21716.9 -21201.8 -20781.4
 S, KJ/(KG)(K)    13.3875  13.3875  13.3875  13.3875  13.3875  13.3875  13.3875  13.3875

 M, (1/n)          18.386   18.412   18.393   18.427   18.427   18.427   18.427   18.427
 (dLV/dLP)t      -1.00112 -1.00041 -1.00093 -1.00000 -1.00000 -1.00000 -1.00001 -1.00001
 (dLV/dLT)p        1.0264   1.0106   1.0224   1.0000   1.0000   1.0000   1.0001   1.0001
 Cp, KJ/(KG)(K)    2.6718   2.4817   2.6258   2.3166   2.3364   2.3584   2.3810   2.4034
 GAMMAs            1.2154   1.2276   1.2180   1.2419   1.2393   1.2366   1.2338   1.2312
 SON VEL,M/SEC     1154.3   1100.5   1143.7    857.9    830.9    809.9    792.7    778.4
 MACH NUMBER        0.000    1.000    0.438    2.681    2.862    3.008    3.129    3.234

 PERFORMANCE PARAMETERS

 Ae/At                      1.0000   1.5000   4.0000   5.0000   6.0000   7.0000   8.0000
 CSTAR, M/SEC               1603.9   1603.9   1603.9   1603.9   1603.9   1603.9   1603.9
 CF                         0.6862   0.3125   1.4340   1.4828   1.5187   1.5468   1.5696
 Ivac, M/SEC                1996.9   2644.0   2557.6   2612.4   2653.6   2686.2   2712.9
 Isp, M/SEC                 1100.5    501.2   2299.9   2378.1   2435.8   2480.9   2517.4

 MASS FRACTIONS

 *CO              0.51362  0.50554  0.51218  0.42937  0.41405  0.40064  0.38871  0.37797
 *CO2             0.14831  0.16100  0.15057  0.28068  0.30476  0.32582  0.34456  0.36143
 *H               0.00020  0.00008  0.00017  0.00000  0.00000  0.00000  0.00000  0.00000
 *H2              0.03116  0.03183  0.03129  0.03737  0.03848  0.03944  0.04030  0.04107
 H2O              0.30594  0.30134  0.30519  0.25258  0.24272  0.23410  0.22643  0.21952
 *O               0.00001  0.00000  0.00000  0.00000  0.00000  0.00000  0.00000  0.00000
 *OH              0.00077  0.00021  0.00060  0.00000  0.00000  0.00000  0.00000  0.00000

  * THERMODYNAMIC PROPERTIES FITTED TO 20000.K

    PRODUCTS WHICH WERE CONSIDERED BUT WHOSE MASS FRACTIONS
    WERE LESS THAN 5.000000E-06 FOR ALL ASSIGNED CONDITIONS

 *C              *CH             CH2             CH3             CH2OH          
 CH3O            CH4             CH3OH           CH3OOH          COOH           
 *C2             C2H             C2H2,acetylene  C2H2,vinylidene CH2CO,ketene   
 O(CH)2O         HO(CO)2OH       C2H3,vinyl      CH3CO,acetyl    C2H4           
 C2H4O,ethylen-o CH3CHO,ethanal  CH3COOH         OHCH2COOH       C2H5           
 C2H6            C2H5OH          CH3OCH3         CH3O2CH3        C2O            
 *C3             C3H3,1-propynl  C3H3,2-propynl  C3H4,allene     C3H4,propyne   
 C3H4,cyclo-     C3H5,allyl      C3H6,propylene  C3H6,cyclo-     C3H6O,propylox 
 C3H6O,acetone   C3H6O,propanal  C3H7,n-propyl   C3H7,i-propyl   C3H8           
 C3H8O,1propanol C3H8O,2propanol C3O2            *C4             C4H2,butadiyne 
 C4H4,1,3-cyclo- C4H6,butadiene  C4H6,1butyne    C4H6,2butyne    C4H6,cyclo-    
 C4H8,1-butene   C4H8,cis2-buten C4H8,tr2-butene C4H8,isobutene  C4H8,cyclo-    
 (CH3COOH)2      C4H9,n-butyl    C4H9,i-butyl    C4H9,s-butyl    C4H9,t-butyl   
 C4H10,n-butane  C4H10,isobutane *C5             C5H6,1,3cyclo-  C5H8,cyclo-    
 C5H10,1-pentene C5H10,cyclo-    C5H11,pentyl    C5H11,t-pentyl  C5H12,n-pentane
 C5H12,i-pentane CH3C(CH3)2CH3   C6H2            C6H5,phenyl     C6H5O,phenoxy  
 C6H6            C6H5OH,phenol   C6H10,cyclo-    C6H12,1-hexene  C6H12,cyclo-   
 C6H13,n-hexyl   C6H14,n-hexane  C7H7,benzyl     C7H8            C7H8O,cresol-mx
 C7H14,1-heptene C7H15,n-heptyl  C7H16,n-heptane C7H16,2-methylh C8H8,styrene   
 C8H10,ethylbenz C8H16,1-octene  C8H17,n-octyl   C8H18,n-octane  C8H18,isooctane
 C9H19,n-nonyl   C10H8,naphthale C10H21,n-decyl  C11H21          C12H9,o-bipheny
 C12H10,biphenyl HCO             HCCO            HO2             HCHO,formaldehy
 HCOOH           H2O2            (HCOOH)2        *O2             O3             
 THDCPD,endo     THDCPD,exo      C(gr)           CH3OH(L)        C2H5OH(L)      
 C6H14(L),n-hexa C6H6(L)         H2O(cr)         H2O(L)         

 NOTE. WEIGHT FRACTION OF FUEL IN TOTAL FUELS AND OF OXIDANT IN TOTAL OXIDANTS

 POINT ITN      T            C           H           O 
 Pinf/Pt = 1.781509
 Pinf/Pt = 1.789425
 Pinf/Pt = 1.789474

              THEORETICAL ROCKET PERFORMANCE ASSUMING EQUILIBRIUM

           COMPOSITION DURING EXPANSION FROM INFINITE AREA COMBUSTOR

 Pin =   116.0 PSIA
 CASE = _______________

             REACTANT                    WT FRACTION      ENERGY      TEMP
                                          (SEE NOTE)     KJ/KG-MOL      K  
 FUEL        C2H5OH(L)                    1.0000000   -277526.835    298.000
 OXIDANT     O2                           1.0000000        -4.407    298.000

 O/F=    1.00000  %FUEL= 50.000000  R,EQ.RATIO= 1.804409  PHI,EQ.RATIO= 2.083778

                 CHAMBER   THROAT     EXIT     EXIT     EXIT     EXIT     EXIT     EXIT
 Pinf/P            1.0000   1.7895   1.0000   1.2000   1.4000   1.6000   1.8000   2.0000
 P, BAR            8.0000   4.4706   8.0000   6.6667   5.7143   5.0000   4.4444   4.0000
 T, K             2425.86  2184.99  2425.86  2349.14  2285.10  2230.33  2182.63  2140.46
 RHO, KG/CU M    7.2936-1 4.5312-1 7.2936-1 6.2799-1 5.5356-1 4.9638-1 4.5096-1 4.1391-1
 H, KJ/KG        -3012.18 -3618.06 -3012.18 -3208.94 -3370.32 -3506.49 -3623.85 -3726.68
 U, KJ/KG        -4109.04 -4604.70 -4109.04 -4270.54 -4402.60 -4513.78 -4609.41 -4693.06
 G, KJ/KG        -35342.0 -32737.7 -35342.0 -34516.2 -33824.2 -33230.5 -32712.0 -32252.9
 S, KJ/(KG)(K)    13.3271  13.3271  13.3271  13.3271  13.3271  13.3271  13.3271  13.3271

 M, (1/n)          18.389   18.413   18.389   18.399   18.405   18.410   18.413   18.416
 (dLV/dLP)t      -1.00105 -1.00038 -1.00105 -1.00078 -1.00060 -1.00047 -1.00038 -1.00031
 (dLV/dLT)p        1.0249   1.0099   1.0249   1.0190   1.0150   1.0120   1.0098   1.0082
 Cp, KJ/(KG)(K)    2.6549   2.4739   2.6549   2.5878   2.5388   2.5016   2.4725   2.4493
 GAMMAs            1.2163   1.2282   1.2163   1.2203   1.2235   1.2261   1.2283   1.2301
 SON VEL,M/SEC     1155.0   1100.8   1155.0   1138.2   1123.9   1111.3   1100.2   1090.3
 MACH NUMBER        0.000    1.000     -nan    0.551    0.753    0.895    1.005    1.096

 PERFORMANCE PARAMETERS

 Ae/At                     1.00000     -nan   1.2662   1.0647   1.0106   1.0000   1.0081
 CSTAR, M/SEC               1603.9   1603.9   1603.9   1603.9   1603.9   1603.9   1603.9
 CF                         0.6863     -nan   0.3911   0.5277   0.6199   0.6896   0.7453
 Ivac, M/SEC                1997.1     -nan   2319.6   2066.0   2007.4   1997.1   2003.8
 Isp, M/SEC                 1100.8     -nan    627.3    846.3    994.3   1106.0   1195.4

 MASS FRACTIONS

 *CO              0.51366  0.50556  0.51366  0.51135  0.50924  0.50729  0.50547  0.50375
 *CO2             0.14823  0.16097  0.14823  0.15186  0.15518  0.15825  0.16111  0.16381
 *H               0.00019  0.00007  0.00019  0.00014  0.00011  0.00009  0.00007  0.00006
 *H2              0.03117  0.03183  0.03117  0.03136  0.03154  0.03169  0.03184  0.03197
 H2O              0.30602  0.30137  0.30602  0.30478  0.30357  0.30242  0.30131  0.30026
 *OH              0.00072  0.00020  0.00072  0.00049  0.00035  0.00026  0.00019  0.00015

  * THERMODYNAMIC PROPERTIES FITTED TO 20000.K

    PRODUCTS WHICH WERE CONSIDERED BUT WHOSE MASS FRACTIONS
    WERE LESS THAN 5.000000E-06 FOR ALL ASSIGNED CONDITIONS

 *C              *CH             CH2             CH3             CH2OH          
 CH3O            CH4             CH3OH           CH3OOH          COOH           
 *C2             C2H             C2H2,acetylene  C2H2,vinylidene CH2CO,ketene   
 O(CH)2O         HO(CO)2OH       C2H3,vinyl      CH3CO,acetyl    C2H4           
 C2H4O,ethylen-o CH3CHO,ethanal  CH3COOH         OHCH2COOH       C2H5           
 C2H6            C2H5OH          CH3OCH3         CH3O2CH3        C2O            
 *C3             C3H3,1-propynl  C3H3,2-propynl  C3H4,allene     C3H4,propyne   
 C3H4,cyclo-     C3H5,allyl      C3H6,propylene  C3H6,cyclo-     C3H6O,propylox 
 C3H6O,acetone   C3H6O,propanal  C3H7,n-propyl   C3H7,i-propyl   C3H8           
 C3H8O,1propanol C3H8O,2propanol C3O2            *C4             C4H2,butadiyne 
 C4H4,1,3-cyclo- C4H6,butadiene  C4H6,1butyne    C4H6,2butyne    C4H6,cyclo-    
 C4H8,1-butene   C4H8,cis2-buten C4H8,tr2-butene C4H8,isobutene  C4H8,cyclo-    
 (CH3COOH)2      C4H9,n-butyl    C4H9,i-butyl    C4H9,s-butyl    C4H9,t-butyl   
 C4H10,n-butane  C4H10,isobutane *C5             C5H6,1,3cyclo-  C5H8,cyclo-    
 C5H10,1-pentene C5H10,cyclo-    C5H11,pentyl    C5H11,t-pentyl  C5H12,n-pentane
 C5H12,i-pentane CH3C(CH3)2CH3   C6H2            C6H5,phenyl     C6H5O,phenoxy  
 C6H6            C6H5OH,phenol   C6H10,cyclo-    C6H12,1-hexene  C6H12,cyclo-   
 C6H13,n-hexyl   C6H14,n-hexane  C7H7,benzyl     C7H8            C7H8O,cresol-mx
 C7H14,1-heptene C7H15,n-heptyl  C7H16,n-heptane C7H16,2-methylh C8H8,styrene   
 C8H10,ethylbenz C8H16,1-octene  C8H17,n-octyl   C8H18,n-octane  C8H18,isooctane
 C9H19,n-nonyl   C10H8,naphthale C10H21,n-decyl  C11H21          C12H9,o-bipheny
 C12H10,biphenyl HCO             HCCO            HO2             HCHO,formaldehy
 HCOOH           H2O2            (HCOOH)2        *O              *O2            
 O3              THDCPD,endo     THDCPD,exo      C(gr)           CH3OH(L)       
 C2H5OH(L)       C6H14(L),n-hexa C6H6(L)         H2O(cr)         H2O(L)         

 NOTE. WEIGHT FRACTION OF FUEL IN TOTAL FUELS AND OF OXIDANT IN TOTAL OXIDANTS

              THEORETICAL ROCKET PERFORMANCE ASSUMING EQUILIBRIUM

           COMPOSITION DURING EXPANSION FROM INFINITE AREA COMBUSTOR

 Pin =   116.0 PSIA
 CASE = _______________

             REACTANT                    WT FRACTION      ENERGY      TEMP
                                          (SEE NOTE)     KJ/KG-MOL      K  
 FUEL        C2H5OH(L)                    1.0000000   -277526.835    298.000
 OXIDANT     O2                           1.0000000        -4.407    298.000

 O/F=    1.00000  %FUEL= 50.000000  R,EQ.RATIO= 1.804409  PHI,EQ.RATIO= 2.083778

                 CHAMBER   THROAT     EXIT     EXIT     EXIT     EXIT     EXIT     EXIT
 Pinf/P            1.0000   1.7895   1.0108   1.0137   1.0181   1.0250   1.0370   1.0608
 P, BAR            8.0000   4.4706   7.9147   7.8916   7.8577   7.8046   7.7146   7.5414
 T, K             2425.86  2184.99  2421.32  2420.09  2418.26  2415.40  2410.50  2400.91
 RHO, KG/CU M    7.2936-1 4.5312-1 7.2296-1 7.2122-1 7.1867-1 7.1469-1 7.0790-1 6.9482-1
 H, KJ/KG        -3012.18 -3618.06 -3023.94 -3027.13 -3031.84 -3039.24 -3051.90 -3076.60
 U, KJ/KG        -4109.04 -4604.70 -4118.70 -4121.33 -4125.20 -4131.28 -4141.68 -4161.97
 G, KJ/KG        -35342.0 -32737.7 -35293.2 -35280.0 -35260.4 -35229.6 -35176.9 -35073.9
 S, KJ/(KG)(K)    13.3271  13.3271  13.3271  13.3271  13.3271  13.3271  13.3271  13.3271

 M, (1/n)          18.389   18.413   18.389   18.390   18.390   18.390   18.391   18.392
 (dLV/dLP)t      -1.00105 -1.00038 -1.00103 -1.00103 -1.00102 -1.00101 -1.00099 -1.00096
 (dLV/dLT)p        1.0249   1.0099   1.0245   1.0244   1.0243   1.0240   1.0236   1.0229
 Cp, KJ/(KG)(K)    2.6549   2.4739   2.6507   2.6495   2.6478   2.6452   2.6407   2.6320
 GAMMAs            1.2163   1.2282   1.2165   1.2166   1.2167   1.2169   1.2171   1.2176
 SON VEL,M/SEC     1155.0   1100.8   1154.1   1153.8   1153.4   1152.8   1151.7   1149.6
 MACH NUMBER        0.000    1.000    0.133    0.150    0.172    0.202    0.245    0.312

 PERFORMANCE PARAMETERS

 Ae/At                     1.00000   4.5000   4.0000   3.5000   3.0000   2.5000   2.0000
 CSTAR, M/SEC               1603.9   1603.9   1603.9   1603.9   1603.9   1603.9   1603.9
 CF                         0.6863   0.0956   0.1078   0.1236   0.1450   0.1757   0.2238
 Ivac, M/SEC                1997.1   7293.9   6501.5   5712.0   4926.9   4148.5   3382.8
 Isp, M/SEC                 1100.8    153.3    172.9    198.3    232.6    281.8    358.9

 MASS FRACTIONS

 *CO              0.51366  0.50556  0.51353  0.51350  0.51345  0.51336  0.51322  0.51294
 *CO2             0.14823  0.16097  0.14844  0.14849  0.14858  0.14871  0.14893  0.14937
 *H               0.00019  0.00007  0.00018  0.00018  0.00018  0.00018  0.00018  0.00017
 *H2              0.03117  0.03183  0.03118  0.03118  0.03118  0.03119  0.03120  0.03123
 H2O              0.30602  0.30137  0.30595  0.30593  0.30590  0.30586  0.30579  0.30564
 *OH              0.00072  0.00020  0.00071  0.00070  0.00070  0.00069  0.00067  0.00064

  * THERMODYNAMIC PROPERTIES FITTED TO 20000.K

    PRODUCTS WHICH WERE CONSIDERED BUT WHOSE MASS FRACTIONS
    WERE LESS THAN 5.000000E-06 FOR ALL ASSIGNED CONDITIONS

 *C              *CH             CH2             CH3             CH2OH          
 CH3O            CH4             CH3OH           CH3OOH          COOH           
 *C2             C2H             C2H2,acetylene  C2H2,vinylidene CH2CO,ketene   
 O(CH)2O         HO(CO)2OH       C2H3,vinyl      CH3CO,acetyl    C2H4           
 C2H4O,ethylen-o CH3CHO,ethanal  CH3COOH         OHCH2COOH       C2H5           
 C2H6            C2H5OH          CH3OCH3         CH3O2CH3        C2O            
 *C3             C3H3,1-propynl  C3H3,2-propynl  C3H4,allene     C3H4,propyne   
 C3H4,cyclo-     C3H5,allyl      C3H6,propylene  C3H6,cyclo-     C3H6O,propylox 
 C3H6O,acetone   C3H6O,propanal  C3H7,n-propyl   C3H7,i-propyl   C3H8           
 C3H8O,1propanol C3H8O,2propanol C3O2            *C4             C4H2,butadiyne 
 C4H4,1,3-cyclo- C4H6,butadiene  C4H6,1butyne    C4H6,2butyne    C4H6,cyclo-    
 C4H8,1-butene   C4H8,cis2-buten C4H8,tr2-butene C4H8,isobutene  C4H8,cyclo-    
 (CH3COOH)2      C4H9,n-butyl    C4H9,i-butyl    C4H9,s-butyl    C4H9,t-butyl   
 C4H10,n-butane  C4H10,isobutane *C5             C5H6,1,3cyclo-  C5H8,cyclo-    
 C5H10,1-pentene C5H10,cyclo-    C5H11,pentyl    C5H11,t-pentyl  C5H12,n-pentane
 C5H12,i-pentane CH3C(CH3)2CH3   C6H2            C6H5,phenyl     C6H5O,phenoxy  
 C6H6            C6H5OH,phenol   C6H10,cyclo-    C6H12,1-hexene  C6H12,cyclo-   
 C6H13,n-hexyl   C6H14,n-hexane  C7H7,benzyl     C7H8            C7H8O,cresol-mx
 C7H14,1-heptene C7H15,n-heptyl  C7H16,n-heptane C7H16,2-methylh C8H8,styrene   
 C8H10,ethylbenz C8H16,1-octene  C8H17,n-octyl   C8H18,n-octane  C8H18,isooctane
 C9H19,n-nonyl   C10H8,naphthale C10H21,n-decyl  C11H21          C12H9,o-bipheny
 C12H10,biphenyl HCO             HCCO            HO2             HCHO,formaldehy
 HCOOH           H2O2            (HCOOH)2        *O              *O2            
 O3              THDCPD,endo     THDCPD,exo      C(gr)           CH3OH(L)       
 C2H5OH(L)       C6H14(L),n-hexa C6H6(L)         H2O(cr)         H2O(L)         

 NOTE. WEIGHT FRACTION OF FUEL IN TOTAL FUELS AND OF OXIDANT IN TOTAL OXIDANTS

              THEORETICAL ROCKET PERFORMANCE ASSUMING EQUILIBRIUM

           COMPOSITION DURING EXPANSION FROM INFINITE AREA COMBUSTOR

 Pin =   116.0 PSIA
 CASE = _______________

             REACTANT                    WT FRACTION      ENERGY      TEMP
                                          (SEE NOTE)     KJ/KG-MOL      K  
 FUEL        C2H5OH(L)                    1.0000000   -277526.835    298.000
 OXIDANT     O2                           1.0000000        -4.407    298.000

 O/F=    1.00000  %FUEL= 50.000000  R,EQ.RATIO= 1.804409  PHI,EQ.RATIO= 2.083778

                 CHAMBER   THROAT     EXIT     EXIT     EXIT     EXIT     EXIT     EXIT
 Pinf/P            1.0000   1.7895   1.1228   24.902   34.236   44.197   54.691   65.649
 P, BAR            8.0000   4.4706   7.1253  0.32126  0.23367  0.18101  0.14628  0.12186
 T, K             2425.86  2184.99  2377.02  1313.29  1234.64  1175.48  1128.75  1090.52
 RHO, KG/CU M    7.2936-1 4.5312-1 6.6319-1 5.4216-2 4.1946-2 3.4128-2 2.8721-2 2.4766-2
 H, KJ/KG        -3012.18 -3618.06 -3137.89 -5657.26 -5840.18 -5979.00 -6089.74 -6181.16
 U, KJ/KG        -4109.04 -4604.70 -4212.28 -6249.82 -6397.25 -6509.39 -6599.03 -6673.20
 G, KJ/KG        -35342.0 -32737.7 -34816.8 -23159.7 -22294.4 -21644.8 -21132.7 -20714.7
 S, KJ/(KG)(K)    13.3271  13.3271  13.3271  13.3271  13.3271  13.3271  13.3271  13.3271

 M, (1/n)          18.389   18.413   18.395   18.427   18.427   18.427   18.427   18.428
 (dLV/dLP)t      -1.00105 -1.00038 -1.00087 -1.00000 -1.00000 -1.00000 -1.00001 -1.00001
 (dLV/dLT)p        1.0249   1.0099   1.0210   1.0000   1.0000   1.0001   1.0001   1.0002
 Cp, KJ/(KG)(K)    2.6549   2.4739   2.6111   2.3166   2.3365   2.3585   2.3812   2.4037
 GAMMAs            1.2163   1.2282   1.2189   1.2419   1.2393   1.2366   1.2338   1.2312
 SON VEL,M/SEC     1155.0   1100.8   1144.4    857.8    830.9    809.9    792.7    778.3
 MACH NUMBER        0.000    1.000    0.438    2.681    2.862    3.008    3.130    3.235

 PERFORMANCE PARAMETERS

 Ae/At                     1.00000   1.5000   4.0000   5.0000   6.0000   7.0000   8.0000
 CSTAR, M/SEC               1603.9   1603.9   1603.9   1603.9   1603.9   1603.9   1603.9
 CF                         0.6863   0.3126   1.4340   1.4828   1.5188   1.5468   1.5696
 Ivac, M/SEC                1997.1   2644.2   2557.7   2612.5   2653.6   2686.2   2713.0
 Isp, M/SEC                 1100.8    501.4   2300.0   2378.2   2435.9   2480.9   2517.5

 MASS FRACTIONS

 *CO              0.51366  0.50556  0.51222  0.42935  0.41402  0.40062  0.38869  0.37795
 *CO2             0.14823  0.16097  0.15050  0.28071  0.30479  0.32586  0.34460  0.36147
 *H               0.00019  0.00007  0.00016  0.00000  0.00000  0.00000  0.00000  0.00000
 *H2              0.03117  0.03183  0.03129  0.03738  0.03848  0.03944  0.04030  0.04107
 H2O              0.30602  0.30137  0.30525  0.25256  0.24271  0.23408  0.22641  0.21951
 *OH              0.00072  0.00020  0.00057  0.00000  0.00000  0.00000  0.00000  0.00000

  * THERMODYNAMIC PROPERTIES FITTED TO 20000.K

    PRODUCTS WHICH WERE CONSIDERED BUT WHOSE MASS FRACTIONS
    WERE LESS THAN 5.000000E-06 FOR ALL ASSIGNED CONDITIONS

 *C              *CH             CH2             CH3             CH2OH          
 CH3O            CH4             CH3OH           CH3OOH          COOH           
 *C2             C2H             C2H2,acetylene  C2H2,vinylidene CH2CO,ketene   
 O(CH)2O         HO(CO)2OH       C2H3,vinyl      CH3CO,acetyl    C2H4           
 C2H4O,ethylen-o CH3CHO,ethanal  CH3COOH         OHCH2COOH       C2H5           
 C2H6            C2H5OH          CH3OCH3         CH3O2CH3        C2O            
 *C3             C3H3,1-propynl  C3H3,2-propynl  C3H4,allene     C3H4,propyne   
 C3H4,cyclo-     C3H5,allyl      C3H6,propylene  C3H6,cyclo-     C3H6O,propylox 
 C3H6O,acetone   C3H6O,propanal  C3H7,n-propyl   C3H7,i-propyl   C3H8           
 C3H8O,1propanol C3H8O,2propanol C3O2            *C4             C4H2,butadiyne 
 C4H4,1,3-cyclo- C4H6,butadiene  C4H6,1butyne    C4H6,2butyne    C4H6,cyclo-    
 C4H8,1-butene   C4H8,cis2-buten C4H8,tr2-butene C4H8,isobutene  C4H8,cyclo-    
 (CH3COOH)2      C4H9,n-butyl    C4H9,i-butyl    C4H9,s-butyl    C4H9,t-butyl   
 C4H10,n-butane  C4H10,isobutane *C5             C5H6,1,3cyclo-  C5H8,cyclo-    
 C5H10,1-pentene C5H10,cyclo-    C5H11,pentyl    C5H11,t-pentyl  C5H12,n-pentane
 C5H12,i-pentane CH3C(CH3)2CH3   C6H2            C6H5,phenyl     C6H5O,phenoxy  
 C6H6            C6H5OH,phenol   C6H10,cyclo-    C6H12,1-hexene  C6H12,cyclo-   
 C6H13,n-hexyl   C6H14,n-hexane  C7H7,benzyl     C7H8            C7H8O,cresol-mx
 C7H14,1-heptene C7H15,n-heptyl  C7H16,n-heptane C7H16,2-methylh C8H8,styrene   
 C8H10,ethylbenz C8H16,1-octene  C8H17,n-octyl   C8H18,n-octane  C8H18,isooctane
 C9H19,n-nonyl   C10H8,naphthale C10H21,n-decyl  C11H21          C12H9,o-bipheny
 C12H10,biphenyl HCO             HCCO            HO2             HCHO,formaldehy
 HCOOH           H2O2            (HCOOH)2        *O              *O2            
 O3              THDCPD,endo     THDCPD,exo      C(gr)           CH3OH(L)       
 C2H5OH(L)       C6H14(L),n-hexa C6H6(L)         H2O(cr)         H2O(L)         

 NOTE. WEIGHT FRACTION OF FUEL IN TOTAL FUELS AND OF OXIDANT IN TOTAL OXIDANTS

 POINT ITN      T            C           H           O 
 Pinf/Pt = 1.781992
 Pinf/Pt = 1.789681
 Pinf/Pt = 1.789727

              THEORETICAL ROCKET PERFORMANCE ASSUMING EQUILIBRIUM

           COMPOSITION DURING EXPANSION FROM INFINITE AREA COMBUSTOR

 Pin =   130.5 PSIA
 CASE = _______________

             REACTANT                    WT FRACTION      ENERGY      TEMP
                                          (SEE NOTE)     KJ/KG-MOL      K  
 FUEL        C2H5OH(L)                    1.0000000   -277526.835    298.000
 OXIDANT     O2                           1.0000000        -4.407    298.000

 O/F=    1.00000  %FUEL= 50.000000  R,EQ.RATIO= 1.804409  PHI,EQ.RATIO= 2.083778

                 CHAMBER   THROAT     EXIT     EXIT     EXIT     EXIT     EXIT     EXIT
 Pinf/P            1.0000   1.7897   1.0000   1.2000   1.4000   1.6000   1.8000   2.0000
 P, BAR            9.0000   5.0287   9.0000   7.5000   6.4286   5.6250   5.0000   4.5000
 T, K             2427.04  2185.32  2427.04  2350.01  2285.76  2230.84  2183.01  2140.77
 RHO, KG/CU M    8.2022-1 5.0963-1 8.2022-1 7.0628-1 6.2261-1 5.5833-1 5.0726-1 4.6560-1
 H, KJ/KG        -3012.18 -3618.36 -3012.18 -3209.01 -3370.43 -3506.62 -3624.00 -3726.84
 U, KJ/KG        -4109.45 -4605.10 -4109.45 -4270.91 -4402.94 -4514.08 -4609.69 -4693.33
 G, KJ/KG        -35228.5 -32626.1 -35228.5 -34402.7 -33711.3 -33118.5 -32601.1 -32143.1
 S, KJ/(KG)(K)    13.2739  13.2739  13.2739  13.2739  13.2739  13.2739  13.2739  13.2739

 M, (1/n)          18.391   18.414   18.391   18.400   18.406   18.411   18.414   18.417
 (dLV/dLP)t      -1.00100 -1.00036 -1.00100 -1.00074 -1.00057 -1.00045 -1.00036 -1.00029
 (dLV/dLT)p        1.0236   1.0094   1.0236   1.0180   1.0141   1.0114   1.0093   1.0077
 Cp, KJ/(KG)(K)    2.6407   2.4674   2.6407   2.5765   2.5296   2.4939   2.4661   2.4439
 GAMMAs            1.2171   1.2286   1.2171   1.2210   1.2241   1.2267   1.2287   1.2305
 SON VEL,M/SEC     1155.6   1101.1   1155.6   1138.7   1124.2   1111.7   1100.5   1090.5
 MACH NUMBER        0.000    1.000     -nan    0.551    0.753    0.895    1.005    1.096

 PERFORMANCE PARAMETERS

 Ae/At                      1.0000     -nan   1.2663   1.0647   1.0106   1.0000   1.0081
 CSTAR, M/SEC               1603.9   1603.9   1603.9   1603.9   1603.9   1603.9   1603.9
 CF                         0.6865     -nan   0.3912   0.5277   0.6200   0.6897   0.7454
 Ivac, M/SEC                1997.2     -nan   2319.9   2066.3   2007.5   1997.3   2004.0
 Isp, M/SEC                 1101.1     -nan    627.4    846.5    994.4   1106.2   1195.5

 MASS FRACTIONS

 *CO              0.51370  0.50558  0.51370  0.51139  0.50927  0.50731  0.50549  0.50377
 *CO2             0.14817  0.16094  0.14817  0.15181  0.15514  0.15821  0.16108  0.16378
 *H               0.00018  0.00007  0.00018  0.00013  0.00010  0.00008  0.00007  0.00006
 *H2              0.03117  0.03183  0.03117  0.03137  0.03154  0.03170  0.03184  0.03197
 H2O              0.30608  0.30139  0.30608  0.30483  0.30361  0.30245  0.30134  0.30028
 *OH              0.00069  0.00019  0.00069  0.00047  0.00033  0.00024  0.00018  0.00014

  * THERMODYNAMIC PROPERTIES FITTED TO 20000.K

    PRODUCTS WHICH WERE CONSIDERED BUT WHOSE MASS FRACTIONS
    WERE LESS THAN 5.000000E-06 FOR ALL ASSIGNED CONDITIONS

 *C              *CH             CH2             CH3             CH2OH          
 CH3O            CH4             CH3OH           CH3OOH          COOH           
 *C2             C2H             C2H2,acetylene  C2H2,vinylidene CH2CO,ketene   
 O(CH)2O         HO(CO)2OH       C2H3,vinyl      CH3CO,acetyl    C2H4           
 C2H4O,ethylen-o CH3CHO,ethanal  CH3COOH         OHCH2COOH       C2H5           
 C2H6            C2H5OH          CH3OCH3         CH3O2CH3        C2O            
 *C3             C3H3,1-propynl  C3H3,2-propynl  C3H4,allene     C3H4,propyne   
 C3H4,cyclo-     C3H5,allyl      C3H6,propylene  C3H6,cyclo-     C3H6O,propylox 
 C3H6O,acetone   C3H6O,propanal  C3H7,n-propyl   C3H7,i-propyl   C3H8           
 C3H8O,1propanol C3H8O,2propanol C3O2            *C4             C4H2,butadiyne 
 C4H4,1,3-cyclo- C4H6,butadiene  C4H6,1butyne    C4H6,2butyne    C4H6,cyclo-    
 C4H8,1-butene   C4H8,cis2-buten C4H8,tr2-butene C4H8,isobutene  C4H8,cyclo-    
 (CH3COOH)2      C4H9,n-butyl    C4H9,i-butyl    C4H9,s-butyl    C4H9,t-butyl   
 C4H10,n-butane  C4H10,isobutane *C5             C5H6,1,3cyclo-  C5H8,cyclo-    
 C5H10,1-pentene C5H10,cyclo-    C5H11,pentyl    C5H11,t-pentyl  C5H12,n-pentane
 C5H12,i-pentane CH3C(CH3)2CH3   C6H2            C6H5,phenyl     C6H5O,phenoxy  
 C6H6            C6H5OH,phenol   C6H10,cyclo-    C6H12,1-hexene  C6H12,cyclo-   
 C6H13,n-hexyl   C6H14,n-hexane  C7H7,benzyl     C7H8            C7H8O,cresol-mx
 C7H14,1-heptene C7H15,n-heptyl  C7H16,n-heptane C7H16,2-methylh C8H8,styrene   
 C8H10,ethylbenz C8H16,1-octene  C8H17,n-octyl   C8H18,n-octane  C8H18,isooctane
 C9H19,n-nonyl   C10H8,naphthale C10H21,n-decyl  C11H21          C12H9,o-bipheny
 C12H10,biphenyl HCO             HCCO            HO2             HCHO,formaldehy
 HCOOH           H2O2            (HCOOH)2        *O              *O2            
 O3              THDCPD,endo     THDCPD,exo      C(gr)           CH3OH(L)       
 C2H5OH(L)       C6H14(L),n-hexa C6H6(L)         H2O(cr)         H2O(L)         

 NOTE. WEIGHT FRACTION OF FUEL IN TOTAL FUELS AND OF OXIDANT IN TOTAL OXIDANTS

              THEORETICAL ROCKET PERFORMANCE ASSUMING EQUILIBRIUM

           COMPOSITION DURING EXPANSION FROM INFINITE AREA COMBUSTOR

 Pin =   130.5 PSIA
 CASE = _______________

             REACTANT                    WT FRACTION      ENERGY      TEMP
                                          (SEE NOTE)     KJ/KG-MOL      K  
 FUEL        C2H5OH(L)                    1.0000000   -277526.835    298.000
 OXIDANT     O2                           1.0000000        -4.407    298.000

 O/F=    1.00000  %FUEL= 50.000000  R,EQ.RATIO= 1.804409  PHI,EQ.RATIO= 2.083778

                 CHAMBER   THROAT     EXIT     EXIT     EXIT     EXIT     EXIT     EXIT
 Pinf/P            1.0000   1.7897   1.0108   1.0137   1.0181   1.0250   1.0370   1.0608
 P, BAR            9.0000   5.0287   8.9040   8.8780   8.8398   8.7801   8.6788   8.4839
 T, K             2427.04  2185.32  2422.48  2421.24  2419.41  2416.53  2411.61  2401.98
 RHO, KG/CU M    8.2022-1 5.0963-1 8.1302-1 8.1107-1 8.0820-1 8.0372-1 7.9610-1 7.8139-1
 H, KJ/KG        -3012.18 -3618.36 -3023.94 -3027.14 -3031.86 -3039.26 -3051.93 -3076.65
 U, KJ/KG        -4109.45 -4605.10 -4119.12 -4121.74 -4125.62 -4131.70 -4142.10 -4162.39
 G, KJ/KG        -35228.5 -32626.1 -35179.7 -35166.4 -35146.8 -35116.0 -35063.3 -34960.2
 S, KJ/(KG)(K)    13.2739  13.2739  13.2739  13.2739  13.2739  13.2739  13.2739  13.2739

 M, (1/n)          18.391   18.414   18.391   18.392   18.392   18.392   18.393   18.394
 (dLV/dLP)t      -1.00100 -1.00036 -1.00098 -1.00098 -1.00097 -1.00096 -1.00094 -1.00091
 (dLV/dLT)p        1.0236   1.0094   1.0232   1.0231   1.0230   1.0228   1.0224   1.0216
 Cp, KJ/(KG)(K)    2.6407   2.4674   2.6367   2.6356   2.6340   2.6315   2.6272   2.6189
 GAMMAs            1.2171   1.2286   1.2173   1.2174   1.2175   1.2176   1.2179   1.2184
 SON VEL,M/SEC     1155.6   1101.1   1154.6   1154.4   1154.0   1153.3   1152.3   1150.2
 MACH NUMBER        0.000    1.000    0.133    0.150    0.172    0.202    0.245    0.312

 PERFORMANCE PARAMETERS

 Ae/At                      1.0000   4.5000   4.0000   3.5000   3.0000   2.5000   2.0000
 CSTAR, M/SEC               1603.9   1603.9   1603.9   1603.9   1603.9   1603.9   1603.9
 CF                         0.6865   0.0956   0.1078   0.1237   0.1451   0.1758   0.2239
 Ivac, M/SEC                1997.2   7294.1   6501.6   5712.2   4927.0   4148.6   3382.9
 Isp, M/SEC                 1101.1    153.4    173.0    198.4    232.7    281.9    359.1

 MASS FRACTIONS

 *CO              0.51370  0.50558  0.51357  0.51354  0.51348  0.51340  0.51326  0.51297
 *CO2             0.14817  0.16094  0.14837  0.14843  0.14851  0.14864  0.14887  0.14932
 *H               0.00018  0.00007  0.00017  0.00017  0.00017  0.00017  0.00017  0.00016
 *H2              0.03117  0.03183  0.03118  0.03118  0.03119  0.03120  0.03121  0.03123
 H2O              0.30608  0.30139  0.30601  0.30599  0.30597  0.30592  0.30585  0.30570
 *OH              0.00069  0.00019  0.00067  0.00067  0.00066  0.00065  0.00064  0.00061

  * THERMODYNAMIC PROPERTIES FITTED TO 20000.K

    PRODUCTS WHICH WERE CONSIDERED BUT WHOSE MASS FRACTIONS
    WERE LESS THAN 5.000000E-06 FOR ALL ASSIGNED CONDITIONS

 *C              *CH             CH2             CH3             CH2OH          
 CH3O            CH4             CH3OH           CH3OOH          COOH           
 *C2             C2H             C2H2,acetylene  C2H2,vinylidene CH2CO,ketene   
 O(CH)2O         HO(CO)2OH       C2H3,vinyl      CH3CO,acetyl    C2H4           
 C2H4O,ethylen-o CH3CHO,ethanal  CH3COOH         OHCH2COOH       C2H5           
 C2H6            C2H5OH          CH3OCH3         CH3O2CH3        C2O            
 *C3             C3H3,1-propynl  C3H3,2-propynl  C3H4,allene     C3H4,propyne   
 C3H4,cyclo-     C3H5,allyl      C3H6,propylene  C3H6,cyclo-     C3H6O,propylox 
 C3H6O,acetone   C3H6O,propanal  C3H7,n-propyl   C3H7,i-propyl   C3H8           
 C3H8O,1propanol C3H8O,2propanol C3O2            *C4             C4H2,butadiyne 
 C4H4,1,3-cyclo- C4H6,butadiene  C4H6,1butyne    C4H6,2butyne    C4H6,cyclo-    
 C4H8,1-butene   C4H8,cis2-buten C4H8,tr2-butene C4H8,isobutene  C4H8,cyclo-    
 (CH3COOH)2      C4H9,n-butyl    C4H9,i-butyl    C4H9,s-butyl    C4H9,t-butyl   
 C4H10,n-butane  C4H10,isobutane *C5             C5H6,1,3cyclo-  C5H8,cyclo-    
 C5H10,1-pentene C5H10,cyclo-    C5H11,pentyl    C5H11,t-pentyl  C5H12,n-pentane
 C5H12,i-pentane CH3C(CH3)2CH3   C6H2            C6H5,phenyl     C6H5O,phenoxy  
 C6H6            C6H5OH,phenol   C6H10,cyclo-    C6H12,1-hexene  C6H12,cyclo-   
 C6H13,n-hexyl   C6H14,n-hexane  C7H7,benzyl     C7H8            C7H8O,cresol-mx
 C7H14,1-heptene C7H15,n-heptyl  C7H16,n-heptane C7H16,2-methylh C8H8,styrene   
 C8H10,ethylbenz C8H16,1-octene  C8H17,n-octyl   C8H18,n-octane  C8H18,isooctane
 C9H19,n-nonyl   C10H8,naphthale C10H21,n-decyl  C11H21          C12H9,o-bipheny
 C12H10,biphenyl HCO             HCCO            HO2             HCHO,formaldehy
 HCOOH           H2O2            (HCOOH)2        *O              *O2            
 O3              THDCPD,endo     THDCPD,exo      C(gr)           CH3OH(L)       
 C2H5OH(L)       C6H14(L),n-hexa C6H6(L)         H2O(cr)         H2O(L)         

 NOTE. WEIGHT FRACTION OF FUEL IN TOTAL FUELS AND OF OXIDANT IN TOTAL OXIDANTS

              THEORETICAL ROCKET PERFORMANCE ASSUMING EQUILIBRIUM

           COMPOSITION DURING EXPANSION FROM INFINITE AREA COMBUSTOR

 Pin =   130.5 PSIA
 CASE = _______________

             REACTANT                    WT FRACTION      ENERGY      TEMP
                                          (SEE NOTE)     KJ/KG-MOL      K  
 FUEL        C2H5OH(L)                    1.0000000   -277526.835    298.000
 OXIDANT     O2                           1.0000000        -4.407    298.000

 O/F=    1.00000  %FUEL= 50.000000  R,EQ.RATIO= 1.804409  PHI,EQ.RATIO= 2.083778

                 CHAMBER   THROAT     EXIT     EXIT     EXIT     EXIT     EXIT     EXIT
 Pinf/P            1.0000   1.7897   1.1228   24.905   34.240   44.202   54.697   65.656
 P, BAR            9.0000   5.0287   8.0157  0.36137  0.26285  0.20361  0.16454  0.13708
 T, K             2427.04  2185.32  2377.98  1313.20  1234.55  1175.41  1128.68  1090.46
 RHO, KG/CU M    8.2022-1 5.0963-1 7.4583-1 6.0989-2 4.7187-2 3.8392-2 3.2310-2 2.7860-2
 H, KJ/KG        -3012.18 -3618.36 -3137.97 -5657.48 -5840.38 -5979.19 -6089.91 -6181.33
 U, KJ/KG        -4109.45 -4605.10 -4212.70 -6250.00 -6397.41 -6509.54 -6599.17 -6673.34
 G, KJ/KG        -35228.5 -32626.1 -34703.0 -23088.7 -22227.7 -21581.4 -21071.8 -20656.0
 S, KJ/(KG)(K)    13.2739  13.2739  13.2739  13.2739  13.2739  13.2739  13.2739  13.2739

 M, (1/n)          18.391   18.414   18.397   18.427   18.427   18.427   18.427   18.428
 (dLV/dLP)t      -1.00100 -1.00036 -1.00083 -1.00000 -1.00000 -1.00001 -1.00001 -1.00002
 (dLV/dLT)p        1.0236   1.0094   1.0199   1.0000   1.0000   1.0001   1.0001   1.0002
 Cp, KJ/(KG)(K)    2.6407   2.4674   2.5988   2.3166   2.3366   2.3586   2.3814   2.4041
 GAMMAs            1.2171   1.2286   1.2196   1.2419   1.2393   1.2366   1.2338   1.2311
 SON VEL,M/SEC     1155.6   1101.1   1144.9    857.8    830.9    809.8    792.7    778.3
 MACH NUMBER        0.000    1.000    0.438    2.681    2.862    3.008    3.130    3.235

 PERFORMANCE PARAMETERS

 Ae/At                      1.0000   1.5000   4.0000   5.0000   6.0000   7.0000   8.0000
 CSTAR, M/SEC               1603.9   1603.9   1603.9   1603.9   1603.9   1603.9   1603.9
 CF                         0.6865   0.3127   1.4341   1.4828   1.5188   1.5469   1.5697
 Ivac, M/SEC                1997.2   2644.3   2557.7   2612.5   2653.7   2686.3   2713.0
 Isp, M/SEC                 1101.1    501.6   2300.1   2378.3   2436.0   2481.0   2517.6

 MASS FRACTIONS

 *CO              0.51370  0.50558  0.51225  0.42934  0.41401  0.40060  0.38867  0.37792
 *CO2             0.14817  0.16094  0.15045  0.28073  0.30482  0.32589  0.34463  0.36150
 *H               0.00018  0.00007  0.00015  0.00000  0.00000  0.00000  0.00000  0.00000
 *H2              0.03117  0.03183  0.03129  0.03738  0.03848  0.03945  0.04030  0.04108
 H2O              0.30608  0.30139  0.30531  0.25255  0.24269  0.23407  0.22640  0.21950
 *OH              0.00069  0.00019  0.00054  0.00000  0.00000  0.00000  0.00000  0.00000

  * THERMODYNAMIC PROPERTIES FITTED TO 20000.K

    PRODUCTS WHICH WERE CONSIDERED BUT WHOSE MASS FRACTIONS
    WERE LESS THAN 5.000000E-06 FOR ALL ASSIGNED CONDITIONS

 *C              *CH             CH2             CH3             CH2OH          
 CH3O            CH4             CH3OH           CH3OOH          COOH           
 *C2             C2H             C2H2,acetylene  C2H2,vinylidene CH2CO,ketene   
 O(CH)2O         HO(CO)2OH       C2H3,vinyl      CH3CO,acetyl    C2H4           
 C2H4O,ethylen-o CH3CHO,ethanal  CH3COOH         OHCH2COOH       C2H5           
 C2H6            C2H5OH          CH3OCH3         CH3O2CH3        C2O            
 *C3             C3H3,1-propynl  C3H3,2-propynl  C3H4,allene     C3H4,propyne   
 C3H4,cyclo-     C3H5,allyl      C3H6,propylene  C3H6,cyclo-     C3H6O,propylox 
 C3H6O,acetone   C3H6O,propanal  C3H7,n-propyl   C3H7,i-propyl   C3H8           
 C3H8O,1propanol C3H8O,2propanol C3O2            *C4             C4H2,butadiyne 
 C4H4,1,3-cyclo- C4H6,butadiene  C4H6,1butyne    C4H6,2butyne    C4H6,cyclo-    
 C4H8,1-butene   C4H8,cis2-buten C4H8,tr2-butene C4H8,isobutene  C4H8,cyclo-    
 (CH3COOH)2      C4H9,n-butyl    C4H9,i-butyl    C4H9,s-butyl    C4H9,t-butyl   
 C4H10,n-butane  C4H10,isobutane *C5             C5H6,1,3cyclo-  C5H8,cyclo-    
 C5H10,1-pentene C5H10,cyclo-    C5H11,pentyl    C5H11,t-pentyl  C5H12,n-pentane
 C5H12,i-pentane CH3C(CH3)2CH3   C6H2            C6H5,phenyl     C6H5O,phenoxy  
 C6H6            C6H5OH,phenol   C6H10,cyclo-    C6H12,1-hexene  C6H12,cyclo-   
 C6H13,n-hexyl   C6H14,n-hexane  C7H7,benzyl     C7H8            C7H8O,cresol-mx
 C7H14,1-heptene C7H15,n-heptyl  C7H16,n-heptane C7H16,2-methylh C8H8,styrene   
 C8H10,ethylbenz C8H16,1-octene  C8H17,n-octyl   C8H18,n-octane  C8H18,isooctane
 C9H19,n-nonyl   C10H8,naphthale C10H21,n-decyl  C11H21          C12H9,o-bipheny
 C12H10,biphenyl HCO             HCCO            HO2             HCHO,formaldehy
 HCOOH           H2O2            (HCOOH)2        *O              *O2            
 O3              THDCPD,endo     THDCPD,exo      C(gr)           CH3OH(L)       
 C2H5OH(L)       C6H14(L),n-hexa C6H6(L)         H2O(cr)         H2O(L)         

 NOTE. WEIGHT FRACTION OF FUEL IN TOTAL FUELS AND OF OXIDANT IN TOTAL OXIDANTS

 POINT ITN      T            C           H           O 
 Pinf/Pt = 1.782409
 Pinf/Pt = 1.789899
 Pinf/Pt = 1.789943

              THEORETICAL ROCKET PERFORMANCE ASSUMING EQUILIBRIUM

           COMPOSITION DURING EXPANSION FROM INFINITE AREA COMBUSTOR

 Pin =   145.0 PSIA
 CASE = _______________

             REACTANT                    WT FRACTION      ENERGY      TEMP
                                          (SEE NOTE)     KJ/KG-MOL      K  
 FUEL        C2H5OH(L)                    1.0000000   -277526.835    298.000
 OXIDANT     O2                           1.0000000        -4.407    298.000

 O/F=    1.00000  %FUEL= 50.000000  R,EQ.RATIO= 1.804409  PHI,EQ.RATIO= 2.083778

                 CHAMBER   THROAT     EXIT     EXIT     EXIT     EXIT     EXIT     EXIT
 Pinf/P            1.0000   1.7899   1.0000   1.2000   1.4000   1.6000   1.8000   2.0000
 P, BAR            10.000   5.5868   10.000   8.3333   7.1429   6.2500   5.5556   5.0000
 T, K             2428.05  2185.61  2428.05  2350.75  2286.31  2231.26  2183.34  2141.02
 RHO, KG/CU M    9.1106-1 5.6613-1 9.1106-1 7.8456-1 6.9166-1 6.2028-1 5.6355-1 5.1729-1
 H, KJ/KG        -3012.18 -3618.60 -3012.18 -3209.06 -3370.52 -3506.74 -3624.13 -3726.98
 U, KJ/KG        -4109.81 -4605.44 -4109.81 -4271.22 -4403.23 -4514.35 -4609.93 -4693.55
 G, KJ/KG        -35126.2 -32526.0 -35126.2 -34300.7 -33609.9 -33018.0 -32501.6 -32044.7
 S, KJ/(KG)(K)    13.2263  13.2263  13.2263  13.2263  13.2263  13.2263  13.2263  13.2263

 M, (1/n)          18.393   18.415   18.393   18.401   18.407   18.412   18.415   18.417
 (dLV/dLP)t      -1.00095 -1.00035 -1.00095 -1.00071 -1.00054 -1.00043 -1.00034 -1.00028
 (dLV/dLT)p        1.0225   1.0089   1.0225   1.0171   1.0135   1.0108   1.0088   1.0073
 Cp, KJ/(KG)(K)    2.6287   2.4619   2.6287   2.5669   2.5217   2.4875   2.4607   2.4393
 GAMMAs            1.2178   1.2290   1.2178   1.2216   1.2246   1.2271   1.2291   1.2308
 SON VEL,M/SEC     1156.1   1101.3   1156.1   1139.1   1124.6   1111.9   1100.8   1090.7
 MACH NUMBER        0.000    1.000     -nan    0.551    0.753    0.894    1.005    1.096

 PERFORMANCE PARAMETERS

 Ae/At                     1.00000     -nan   1.2664   1.0648   1.0107   1.0000   1.0080
 CSTAR, M/SEC               1603.9   1603.9   1603.9   1603.9   1603.9   1603.9   1603.9
 CF                         0.6866     -nan   0.3912   0.5278   0.6201   0.6897   0.7455
 Ivac, M/SEC                1997.4     -nan   2320.2   2066.4   2007.7   1997.4   2004.1
 Isp, M/SEC                 1101.3     -nan    627.5    846.6    994.5   1106.3   1195.7

 MASS FRACTIONS

 *CO              0.51374  0.50559  0.51374  0.51141  0.50929  0.50733  0.50550  0.50378
 *CO2             0.14811  0.16092  0.14811  0.15177  0.15510  0.15818  0.16106  0.16376
 *H               0.00017  0.00006  0.00017  0.00013  0.00010  0.00008  0.00006  0.00005
 *H2              0.03117  0.03183  0.03117  0.03137  0.03154  0.03170  0.03184  0.03197
 H2O              0.30614  0.30141  0.30614  0.30487  0.30364  0.30247  0.30136  0.30029
 *OH              0.00066  0.00018  0.00066  0.00045  0.00032  0.00023  0.00017  0.00013

  * THERMODYNAMIC PROPERTIES FITTED TO 20000.K

    PRODUCTS WHICH WERE CONSIDERED BUT WHOSE MASS FRACTIONS
    WERE LESS THAN 5.000000E-06 FOR ALL ASSIGNED CONDITIONS

 *C              *CH             CH2             CH3             CH2OH          
 CH3O            CH4             CH3OH           CH3OOH          COOH           
 *C2             C2H             C2H2,acetylene  C2H2,vinylidene CH2CO,ketene   
 O(CH)2O         HO(CO)2OH       C2H3,vinyl      CH3CO,acetyl    C2H4           
 C2H4O,ethylen-o CH3CHO,ethanal  CH3COOH         OHCH2COOH       C2H5           
 C2H6            C2H5OH          CH3OCH3         CH3O2CH3        C2O            
 *C3             C3H3,1-propynl  C3H3,2-propynl  C3H4,allene     C3H4,propyne   
 C3H4,cyclo-     C3H5,allyl      C3H6,propylene  C3H6,cyclo-     C3H6O,propylox 
 C3H6O,acetone   C3H6O,propanal  C3H7,n-propyl   C3H7,i-propyl   C3H8           
 C3H8O,1propanol C3H8O,2propanol C3O2            *C4             C4H2,butadiyne 
 C4H4,1,3-cyclo- C4H6,butadiene  C4H6,1butyne    C4H6,2butyne    C4H6,cyclo-    
 C4H8,1-butene   C4H8,cis2-buten C4H8,tr2-butene C4H8,isobutene  C4H8,cyclo-    
 (CH3COOH)2      C4H9,n-butyl    C4H9,i-butyl    C4H9,s-butyl    C4H9,t-butyl   
 C4H10,n-butane  C4H10,isobutane *C5             C5H6,1,3cyclo-  C5H8,cyclo-    
 C5H10,1-pentene C5H10,cyclo-    C5H11,pentyl    C5H11,t-pentyl  C5H12,n-pentane
 C5H12,i-pentane CH3C(CH3)2CH3   C6H2            C6H5,phenyl     C6H5O,phenoxy  
 C6H6            C6H5OH,phenol   C6H10,cyclo-    C6H12,1-hexene  C6H12,cyclo-   
 C6H13,n-hexyl   C6H14,n-hexane  C7H7,benzyl     C7H8            C7H8O,cresol-mx
 C7H14,1-heptene C7H15,n-heptyl  C7H16,n-heptane C7H16,2-methylh C8H8,styrene   
 C8H10,ethylbenz C8H16,1-octene  C8H17,n-octyl   C8H18,n-octane  C8H18,isooctane
 C9H19,n-nonyl   C10H8,naphthale C10H21,n-decyl  C11H21          C12H9,o-bipheny
 C12H10,biphenyl HCO             HCCO            HO2             HCHO,formaldehy
 HCOOH           H2O2            (HCOOH)2        *O              *O2            
 O3              THDCPD,endo     THDCPD,exo      C(gr)           CH3OH(L)       
 C2H5OH(L)       C6H14(L),n-hexa C6H6(L)         H2O(cr)         H2O(L)         

 NOTE. WEIGHT FRACTION OF FUEL IN TOTAL FUELS AND OF OXIDANT IN TOTAL OXIDANTS

              THEORETICAL ROCKET PERFORMANCE ASSUMING EQUILIBRIUM

           COMPOSITION DURING EXPANSION FROM INFINITE AREA COMBUSTOR

 Pin =   145.0 PSIA
 CASE = _______________

             REACTANT                    WT FRACTION      ENERGY      TEMP
                                          (SEE NOTE)     KJ/KG-MOL      K  
 FUEL        C2H5OH(L)                    1.0000000   -277526.835    298.000
 OXIDANT     O2                           1.0000000        -4.407    298.000

 O/F=    1.00000  %FUEL= 50.000000  R,EQ.RATIO= 1.804409  PHI,EQ.RATIO= 2.083778

                 CHAMBER   THROAT     EXIT     EXIT     EXIT     EXIT     EXIT     EXIT
 Pinf/P            1.0000   1.7899   1.0108   1.0137   1.0181   1.0250   1.0370   1.0609
 P, BAR            10.000   5.5868   9.8933   9.8644   9.8220   9.7556   9.6430   9.4264
 T, K             2428.05  2185.61  2423.47  2422.23  2420.39  2417.50  2412.55  2402.89
 RHO, KG/CU M    9.1106-1 5.6613-1 9.0306-1 9.0090-1 8.9772-1 8.9274-1 8.8427-1 8.6794-1
 H, KJ/KG        -3012.18 -3618.60 -3023.95 -3027.15 -3031.87 -3039.28 -3051.95 -3076.68
 U, KJ/KG        -4109.81 -4605.44 -4119.47 -4122.10 -4125.97 -4132.05 -4142.46 -4162.75
 G, KJ/KG        -35126.2 -32526.0 -35077.4 -35064.2 -35044.5 -35013.8 -34961.0 -34857.9
 S, KJ/(KG)(K)    13.2263  13.2263  13.2263  13.2263  13.2263  13.2263  13.2263  13.2263

 M, (1/n)          18.393   18.415   18.393   18.393   18.393   18.394   18.394   18.396
 (dLV/dLP)t      -1.00095 -1.00035 -1.00094 -1.00093 -1.00092 -1.00091 -1.00090 -1.00087
 (dLV/dLT)p        1.0225   1.0089   1.0221   1.0220   1.0219   1.0217   1.0213   1.0206
 Cp, KJ/(KG)(K)    2.6287   2.4619   2.6248   2.6237   2.6222   2.6197   2.6156   2.6076
 GAMMAs            1.2178   1.2290   1.2180   1.2181   1.2182   1.2183   1.2186   1.2190
 SON VEL,M/SEC     1156.1   1101.3   1155.1   1154.9   1154.5   1153.8   1152.8   1150.6
 MACH NUMBER        0.000    1.000    0.133    0.150    0.172    0.202    0.245    0.312

 PERFORMANCE PARAMETERS

 Ae/At                     1.00000   4.5000   4.0000   3.5000   3.0000   2.5000   2.0000
[...]
 HO2              0.00029  0.00020  0.00027  0.00003  0.00003  0.00002  0.00002  0.00002
 *H2              0.00136  0.00118  0.00132  0.00047  0.00040  0.00035  0.00030  0.00027
 H2O              0.24910  0.25494  0.25030  0.27683  0.27902  0.28069  0.28203  0.28314
 H2O2             0.00002  0.00001  0.00002  0.00000  0.00000  0.00000  0.00000  0.00000
 *O               0.01555  0.01294  0.01501  0.00436  0.00363  0.00309  0.00267  0.00233
 *OH              0.05402  0.04725  0.05264  0.02163  0.01902  0.01700  0.01536  0.01399
 *O2              0.24943  0.24674  0.24891  0.23396  0.23266  0.23171  0.23099  0.23042

  * THERMODYNAMIC PROPERTIES FITTED TO 20000.K

    PRODUCTS WHICH WERE CONSIDERED BUT WHOSE MASS FRACTIONS
    WERE LESS THAN 5.000000E-06 FOR ALL ASSIGNED CONDITIONS

 *C              *CH             CH2             CH3             CH2OH          
 CH3O            CH4             CH3OH           CH3OOH          COOH           
 *C2             C2H             C2H2,acetylene  C2H2,vinylidene CH2CO,ketene   
 O(CH)2O         HO(CO)2OH       C2H3,vinyl      CH3CO,acetyl    C2H4           
 C2H4O,ethylen-o CH3CHO,ethanal  CH3COOH         OHCH2COOH       C2H5           
 C2H6            C2H5OH          CH3OCH3         CH3O2CH3        C2O            
 *C3             C3H3,1-propynl  C3H3,2-propynl  C3H4,allene     C3H4,propyne   
 C3H4,cyclo-     C3H5,allyl      C3H6,propylene  C3H6,cyclo-     C3H6O,propylox 
 C3H6O,acetone   C3H6O,propanal  C3H7,n-propyl   C3H7,i-propyl   C3H8           
 C3H8O,1propanol C3H8O,2propanol C3O2            *C4             C4H2,butadiyne 
 C4H4,1,3-cyclo- C4H6,butadiene  C4H6,1butyne    C4H6,2butyne    C4H6,cyclo-    
 C4H8,1-butene   C4H8,cis2-buten C4H8,tr2-butene C4H8,isobutene  C4H8,cyclo-    
 (CH3COOH)2      C4H9,n-butyl    C4H9,i-butyl    C4H9,s-butyl    C4H9,t-butyl   
 C4H10,n-butane  C4H10,isobutane *C5             C5H6,1,3cyclo-  C5H8,cyclo-    
 C5H10,1-pentene C5H10,cyclo-    C5H11,pentyl    C5H11,t-pentyl  C5H12,n-pentane
 C5H12,i-pentane CH3C(CH3)2CH3   C6H2            C6H5,phenyl     C6H5O,phenoxy  
 C6H6            C6H5OH,phenol   C6H10,cyclo-    C6H12,1-hexene  C6H12,cyclo-   
 C6H13,n-hexyl   C6H14,n-hexane  C7H7,benzyl     C7H8            C7H8O,cresol-mx
 C7H14,1-heptene C7H15,n-heptyl  C7H16,n-heptane C7H16,2-methylh C8H8,styrene   
 C8H10,ethylbenz C8H16,1-octene  C8H17,n-octyl   C8H18,n-octane  C8H18,isooctane
 C9H19,n-nonyl   C10H8,naphthale C10H21,n-decyl  C11H21          C12H9,o-bipheny
 C12H10,biphenyl HCO             HCCO            HCHO,formaldehy HCOOH          
 (HCOOH)2        O3              THDCPD,endo     THDCPD,exo      C(gr)          
 CH3OH(L)        C2H5OH(L)       C6H14(L),n-hexa C6H6(L)         H2O(cr)        
 H2O(L)         

 NOTE. WEIGHT FRACTION OF FUEL IN TOTAL FUELS AND OF OXIDANT IN TOTAL OXIDANTS

 POINT ITN      T            C           H           O 
 Pinf/Pt = 1.723220
 Pinf/Pt = 1.721440

              THEORETICAL ROCKET PERFORMANCE ASSUMING EQUILIBRIUM

           COMPOSITION DURING EXPANSION FROM INFINITE AREA COMBUSTOR

 Pin =   232.1 PSIA
 CASE = _______________

             REACTANT                    WT FRACTION      ENERGY      TEMP
                                          (SEE NOTE)     KJ/KG-MOL      K  
 FUEL        C2H5OH(L)                    1.0000000   -277526.835    298.000
 OXIDANT     O2                           1.0000000        -4.407    298.000

 O/F=    3.00000  %FUEL= 25.000000  R,EQ.RATIO= 0.726280  PHI,EQ.RATIO= 0.694593

                 CHAMBER   THROAT     EXIT     EXIT     EXIT     EXIT     EXIT     EXIT
 Pinf/P            1.0000   1.7214   1.0000   1.2000   1.4000   1.6000   1.8000   2.0000
 P, BAR            16.000   9.2945   16.000   13.333   11.429   10.000   8.8889   8.0000
 T, K             3213.80  3071.79  3213.80  3165.19  3124.85  3090.44  3060.48  3033.98
 RHO, KG/CU M    1.5902 0 9.7898-1 1.5902 0 1.3514 0 1.1776 0 1.0452 0 9.4068-1 8.5608-1
 H, KJ/KG        -1506.16 -2037.05 -1506.16 -1687.81 -1838.65 -1967.32 -2079.32 -2178.32
 U, KJ/KG        -2512.30 -2986.46 -2512.30 -2674.41 -2809.13 -2924.12 -3024.26 -3112.82
 G, KJ/KG        -35649.1 -34671.3 -35649.1 -35314.3 -35036.6 -34799.7 -34593.4 -34410.8
 S, KJ/(KG)(K)    10.6239  10.6239  10.6239  10.6239  10.6239  10.6239  10.6239  10.6239

 M, (1/n)          26.558   26.901   26.558   26.674   26.772   26.856   26.929   26.994
 (dLV/dLP)t      -1.03545 -1.03126 -1.03545 -1.03404 -1.03286 -1.03182 -1.03091 -1.03009
 (dLV/dLT)p        1.7107   1.6578   1.7107   1.6938   1.6789   1.6654   1.6532   1.6419
 Cp, KJ/(KG)(K)    6.3899   6.1965   6.3899   6.3327   6.2783   6.2266   6.1775   6.1307
 GAMMAs            1.1210   1.1184   1.1210   1.1200   1.1193   1.1187   1.1182   1.1177
 SON VEL,M/SEC     1062.0   1030.4   1062.0   1051.2   1042.2   1034.6   1027.9   1022.0
 MACH NUMBER        0.000    1.000     -nan    0.573    0.782    0.928    1.042    1.134

 PERFORMANCE PARAMETERS

 Ae/At                      1.0000     -nan   1.2384   1.0505   1.0050   1.0016   1.0163
 CSTAR, M/SEC               1586.1   1586.1   1586.1   1586.1   1586.1   1586.1   1586.1
 CF                         0.6497     -nan   0.3800   0.5141   0.6055   0.6750   0.7310
 Ivac, M/SEC                1951.8     -nan   2239.6   2005.6   1956.6   1953.2   1965.4
 Isp, M/SEC                 1030.4     -nan    602.7    815.5    960.4   1070.7   1159.5

 MASS FRACTIONS

 *CO              0.08312  0.07160  0.08312  0.07922  0.07595  0.07313  0.07066  0.06846
 *CO2             0.34705  0.36516  0.34705  0.35317  0.35831  0.36274  0.36663  0.37008
 *H               0.00037  0.00030  0.00037  0.00035  0.00033  0.00031  0.00030  0.00028
 HO2              0.00029  0.00020  0.00029  0.00026  0.00023  0.00021  0.00020  0.00018
 *H2              0.00134  0.00117  0.00134  0.00128  0.00123  0.00119  0.00115  0.00112
 H2O              0.24936  0.25518  0.24936  0.25135  0.25300  0.25441  0.25564  0.25672
 H2O2             0.00002  0.00001  0.00002  0.00002  0.00002  0.00001  0.00001  0.00001
 *O               0.01537  0.01278  0.01537  0.01447  0.01373  0.01311  0.01258  0.01211
 *OH              0.05388  0.04710  0.05388  0.05156  0.04964  0.04799  0.04656  0.04530
 *O2              0.24919  0.24650  0.24919  0.24831  0.24755  0.24687  0.24627  0.24572

  * THERMODYNAMIC PROPERTIES FITTED TO 20000.K

    PRODUCTS WHICH WERE CONSIDERED BUT WHOSE MASS FRACTIONS
    WERE LESS THAN 5.000000E-06 FOR ALL ASSIGNED CONDITIONS

 *C              *CH             CH2             CH3             CH2OH          
 CH3O            CH4             CH3OH           CH3OOH          COOH           
 *C2             C2H             C2H2,acetylene  C2H2,vinylidene CH2CO,ketene   
 O(CH)2O         HO(CO)2OH       C2H3,vinyl      CH3CO,acetyl    C2H4           
 C2H4O,ethylen-o CH3CHO,ethanal  CH3COOH         OHCH2COOH       C2H5           
 C2H6            C2H5OH          CH3OCH3         CH3O2CH3        C2O            
 *C3             C3H3,1-propynl  C3H3,2-propynl  C3H4,allene     C3H4,propyne   
 C3H4,cyclo-     C3H5,allyl      C3H6,propylene  C3H6,cyclo-     C3H6O,propylox 
 C3H6O,acetone   C3H6O,propanal  C3H7,n-propyl   C3H7,i-propyl   C3H8           
 C3H8O,1propanol C3H8O,2propanol C3O2            *C4             C4H2,butadiyne 
 C4H4,1,3-cyclo- C4H6,butadiene  C4H6,1butyne    C4H6,2butyne    C4H6,cyclo-    
 C4H8,1-butene   C4H8,cis2-buten C4H8,tr2-butene C4H8,isobutene  C4H8,cyclo-    
 (CH3COOH)2      C4H9,n-butyl    C4H9,i-butyl    C4H9,s-butyl    C4H9,t-butyl   
 C4H10,n-butane  C4H10,isobutane *C5             C5H6,1,3cyclo-  C5H8,cyclo-    
 C5H10,1-pentene C5H10,cyclo-    C5H11,pentyl    C5H11,t-pentyl  C5H12,n-pentane
 C5H12,i-pentane CH3C(CH3)2CH3   C6H2            C6H5,phenyl     C6H5O,phenoxy  
 C6H6            C6H5OH,phenol   C6H10,cyclo-    C6H12,1-hexene  C6H12,cyclo-   
 C6H13,n-hexyl   C6H14,n-hexane  C7H7,benzyl     C7H8            C7H8O,cresol-mx
 C7H14,1-heptene C7H15,n-heptyl  C7H16,n-heptane C7H16,2-methylh C8H8,styrene   
 C8H10,ethylbenz C8H16,1-octene  C8H17,n-octyl   C8H18,n-octane  C8H18,isooctane
 C9H19,n-nonyl   C10H8,naphthale C10H21,n-decyl  C11H21          C12H9,o-bipheny
 C12H10,biphenyl HCO             HCCO            HCHO,formaldehy HCOOH          
 (HCOOH)2        O3              THDCPD,endo     THDCPD,exo      C(gr)          
 CH3OH(L)        C2H5OH(L)       C6H14(L),n-hexa C6H6(L)         H2O(cr)        
 H2O(L)         

 NOTE. WEIGHT FRACTION OF FUEL IN TOTAL FUELS AND OF OXIDANT IN TOTAL OXIDANTS

              THEORETICAL ROCKET PERFORMANCE ASSUMING EQUILIBRIUM

           COMPOSITION DURING EXPANSION FROM INFINITE AREA COMBUSTOR

 Pin =   232.1 PSIA
 CASE = _______________

             REACTANT                    WT FRACTION      ENERGY      TEMP
                                          (SEE NOTE)     KJ/KG-MOL      K  
 FUEL        C2H5OH(L)                    1.0000000   -277526.835    298.000
 OXIDANT     O2                           1.0000000        -4.407    298.000

 O/F=    3.00000  %FUEL= 25.000000  R,EQ.RATIO= 0.726280  PHI,EQ.RATIO= 0.694593

                 CHAMBER   THROAT     EXIT     EXIT     EXIT     EXIT     EXIT     EXIT
 Pinf/P            1.0000   1.7214   1.0101   1.0129   1.0170   1.0235   1.0346   1.0569
 P, BAR            16.000   9.2945   15.840   15.797   15.733   15.633   15.464   15.139
 T, K             3213.80  3071.79  3211.09  3210.35  3209.27  3207.56  3204.64  3198.94
 RHO, KG/CU M    1.5902 0 9.7898-1 1.5760 0 1.5722 0 1.5665 0 1.5577 0 1.5426 0 1.5136 0
 H, KJ/KG        -1506.16 -2037.05 -1516.28 -1519.03 -1523.09 -1529.46 -1540.37 -1561.68
 U, KJ/KG        -2512.30 -2986.46 -2521.32 -2523.77 -2527.39 -2533.08 -2542.82 -2561.83
 G, KJ/KG        -35649.1 -34671.3 -35630.4 -35625.3 -35617.9 -35606.1 -35586.0 -35546.7
 S, KJ/(KG)(K)    10.6239  10.6239  10.6239  10.6239  10.6239  10.6239  10.6239  10.6239

 M, (1/n)          26.558   26.901   26.565   26.566   26.569   26.573   26.580   26.594
 (dLV/dLP)t      -1.03545 -1.03126 -1.03537 -1.03535 -1.03532 -1.03527 -1.03519 -1.03502
 (dLV/dLT)p        1.7107   1.6578   1.7098   1.7095   1.7091   1.7086   1.7076   1.7056
 Cp, KJ/(KG)(K)    6.3899   6.1965   6.3869   6.3861   6.3849   6.3830   6.3798   6.3733
 GAMMAs            1.1210   1.1184   1.1209   1.1209   1.1209   1.1209   1.1208   1.1207
 SON VEL,M/SEC     1062.0   1030.4   1061.4   1061.2   1061.0   1060.6   1060.0   1058.7
 MACH NUMBER        0.000    1.000    0.134    0.151    0.173    0.204    0.247    0.315

 PERFORMANCE PARAMETERS

 Ae/At                      1.0000   4.5000   4.0000   3.5000   3.0000   2.5000   2.0000
 CSTAR, M/SEC               1586.1   1586.1   1586.1   1586.1   1586.1   1586.1   1586.1
 CF                         0.6497   0.0897   0.1011   0.1160   0.1361   0.1649   0.2101
 Ivac, M/SEC                1951.8   7208.2   6424.1   5642.7   4865.2   4094.0   3334.6
 Isp, M/SEC                 1030.4    142.2    160.4    184.0    215.9    261.6    333.2

 MASS FRACTIONS

 *CO              0.08312  0.07160  0.08290  0.08284  0.08276  0.08262  0.08239  0.08193
 *CO2             0.34705  0.36516  0.34739  0.34748  0.34762  0.34783  0.34820  0.34891
 *H               0.00037  0.00030  0.00037  0.00037  0.00037  0.00037  0.00036  0.00036
 HO2              0.00029  0.00020  0.00029  0.00029  0.00029  0.00029  0.00029  0.00028
 *H2              0.00134  0.00117  0.00134  0.00134  0.00134  0.00134  0.00133  0.00133
 H2O              0.24936  0.25518  0.24947  0.24950  0.24954  0.24961  0.24973  0.24996
 H2O2             0.00002  0.00001  0.00002  0.00002  0.00002  0.00002  0.00002  0.00002
 *O               0.01537  0.01278  0.01532  0.01531  0.01529  0.01526  0.01520  0.01510
 *OH              0.05388  0.04710  0.05375  0.05372  0.05366  0.05358  0.05344  0.05317
 *O2              0.24919  0.24650  0.24914  0.24913  0.24911  0.24908  0.24903  0.24893

  * THERMODYNAMIC PROPERTIES FITTED TO 20000.K

    PRODUCTS WHICH WERE CONSIDERED BUT WHOSE MASS FRACTIONS
    WERE LESS THAN 5.000000E-06 FOR ALL ASSIGNED CONDITIONS

 *C              *CH             CH2             CH3             CH2OH          
 CH3O            CH4             CH3OH           CH3OOH          COOH           
 *C2             C2H             C2H2,acetylene  C2H2,vinylidene CH2CO,ketene   
 O(CH)2O         HO(CO)2OH       C2H3,vinyl      CH3CO,acetyl    C2H4           
 C2H4O,ethylen-o CH3CHO,ethanal  CH3COOH         OHCH2COOH       C2H5           
 C2H6            C2H5OH          CH3OCH3         CH3O2CH3        C2O            
 *C3             C3H3,1-propynl  C3H3,2-propynl  C3H4,allene     C3H4,propyne   
 C3H4,cyclo-     C3H5,allyl      C3H6,propylene  C3H6,cyclo-     C3H6O,propylox 
 C3H6O,acetone   C3H6O,propanal  C3H7,n-propyl   C3H7,i-propyl   C3H8           
 C3H8O,1propanol C3H8O,2propanol C3O2            *C4             C4H2,butadiyne 
 C4H4,1,3-cyclo- C4H6,butadiene  C4H6,1butyne    C4H6,2butyne    C4H6,cyclo-    
 C4H8,1-butene   C4H8,cis2-buten C4H8,tr2-butene C4H8,isobutene  C4H8,cyclo-    
 (CH3COOH)2      C4H9,n-butyl    C4H9,i-butyl    C4H9,s-butyl    C4H9,t-butyl   
 C4H10,n-butane  C4H10,isobutane *C5             C5H6,1,3cyclo-  C5H8,cyclo-    
 C5H10,1-pentene C5H10,cyclo-    C5H11,pentyl    C5H11,t-pentyl  C5H12,n-pentane
 C5H12,i-pentane CH3C(CH3)2CH3   C6H2            C6H5,phenyl     C6H5O,phenoxy  
 C6H6            C6H5OH,phenol   C6H10,cyclo-    C6H12,1-hexene  C6H12,cyclo-   
 C6H13,n-hexyl   C6H14,n-hexane  C7H7,benzyl     C7H8            C7H8O,cresol-mx
 C7H14,1-heptene C7H15,n-heptyl  C7H16,n-heptane C7H16,2-methylh C8H8,styrene   
 C8H10,ethylbenz C8H16,1-octene  C8H17,n-octyl   C8H18,n-octane  C8H18,isooctane
 C9H19,n-nonyl   C10H8,naphthale C10H21,n-decyl  C11H21          C12H9,o-bipheny
 C12H10,biphenyl HCO             HCCO            HCHO,formaldehy HCOOH          
 (HCOOH)2        O3              THDCPD,endo     THDCPD,exo      C(gr)          
 CH3OH(L)        C2H5OH(L)       C6H14(L),n-hexa C6H6(L)         H2O(cr)        
 H2O(L)         

 NOTE. WEIGHT FRACTION OF FUEL IN TOTAL FUELS AND OF OXIDANT IN TOTAL OXIDANTS

              THEORETICAL ROCKET PERFORMANCE ASSUMING EQUILIBRIUM

           COMPOSITION DURING EXPANSION FROM INFINITE AREA COMBUSTOR

 Pin =   232.1 PSIA
 CASE = _______________

             REACTANT                    WT FRACTION      ENERGY      TEMP
                                          (SEE NOTE)     KJ/KG-MOL      K  
 FUEL        C2H5OH(L)                    1.0000000   -277526.835    298.000
 OXIDANT     O2                           1.0000000        -4.407    298.000

 O/F=    3.00000  %FUEL= 25.000000  R,EQ.RATIO= 0.726280  PHI,EQ.RATIO= 0.694593

                 CHAMBER   THROAT     EXIT     EXIT     EXIT     EXIT     EXIT     EXIT
 Pinf/P            1.0000   1.7214   1.1146   19.482   26.147   33.139   40.414   47.942
 P, BAR            16.000   9.2945   14.355  0.82126  0.61192  0.48281  0.39590  0.33374
 T, K             3213.80  3071.79  3184.75  2508.04  2443.01  2390.40  2346.01  2307.48
 RHO, KG/CU M    1.5902 0 9.7898-1 1.4435 0 1.1131-1 8.5559-2 6.9246-2 5.8021-2 4.9845-2
 H, KJ/KG        -1506.16 -2037.05 -1614.69 -4072.61 -4286.37 -4453.72 -4590.62 -4706.07
 U, KJ/KG        -2512.30 -2986.46 -2609.13 -4810.40 -5001.57 -5150.96 -5272.95 -5375.63
 G, KJ/KG        -35649.1 -34671.3 -35449.0 -30717.6 -30240.5 -29849.0 -29514.3 -29220.4
 S, KJ/(KG)(K)    10.6239  10.6239  10.6239  10.6239  10.6239  10.6239  10.6239  10.6239

 M, (1/n)          26.558   26.901   26.628   28.264   28.401   28.505   28.587   28.654
 (dLV/dLP)t      -1.03545 -1.03126 -1.03461 -1.01297 -1.01098 -1.00947 -1.00826 -1.00727
 (dLV/dLT)p        1.7107   1.6578   1.7008   1.3399   1.2964   1.2616   1.2331   1.2091
 Cp, KJ/(KG)(K)    6.3899   6.1965   6.3568   4.4770   4.1880   3.9487   3.7458   3.5710
 GAMMAs            1.1210   1.1184   1.1204   1.1173   1.1192   1.1212   1.1233   1.1255
 SON VEL,M/SEC     1062.0   1030.4   1055.6    907.9    894.7    884.2    875.5    868.1
 MACH NUMBER        0.000    1.000    0.441    2.495    2.636    2.746    2.837    2.914

 PERFORMANCE PARAMETERS

 Ae/At                      1.0000   1.5000   4.0000   5.0000   6.0000   7.0000   8.0000
 CSTAR, M/SEC               1586.1   1586.1   1586.1   1586.1   1586.1   1586.1   1586.1
 CF                         0.6497   0.2937   1.4284   1.4867   1.5308   1.5659   1.5950
 Ivac, M/SEC                1951.8   2600.4   2591.2   2661.4   2715.2   2758.5   2794.5
 Isp, M/SEC                 1030.4    465.9   2265.6   2358.1   2428.0   2483.7   2529.8

 MASS FRACTIONS

 *CO              0.08312  0.07160  0.08080  0.02592  0.02147  0.01814  0.01555  0.01347
 *CO2             0.34705  0.36516  0.35070  0.43693  0.44392  0.44915  0.45322  0.45650
 *H               0.00037  0.00030  0.00035  0.00008  0.00007  0.00005  0.00004  0.00004
 HO2              0.00029  0.00020  0.00027  0.00003  0.00003  0.00002  0.00002  0.00002
 *H2              0.00134  0.00117  0.00131  0.00046  0.00039  0.00034  0.00030  0.00026
 H2O              0.24936  0.25518  0.25055  0.27701  0.27919  0.28085  0.28219  0.28329
 H2O2             0.00002  0.00001  0.00002  0.00000  0.00000  0.00000  0.00000  0.00000
 *O               0.01537  0.01278  0.01483  0.00428  0.00355  0.00302  0.00261  0.00228
 *OH              0.05388  0.04710  0.05250  0.02148  0.01886  0.01684  0.01521  0.01384
 *O2              0.24919  0.24650  0.24867  0.23380  0.23252  0.23158  0.23087  0.23032

  * THERMODYNAMIC PROPERTIES FITTED TO 20000.K

    PRODUCTS WHICH WERE CONSIDERED BUT WHOSE MASS FRACTIONS
    WERE LESS THAN 5.000000E-06 FOR ALL ASSIGNED CONDITIONS

 *C              *CH             CH2             CH3             CH2OH          
 CH3O            CH4             CH3OH           CH3OOH          COOH           
 *C2             C2H             C2H2,acetylene  C2H2,vinylidene CH2CO,ketene   
 O(CH)2O         HO(CO)2OH       C2H3,vinyl      CH3CO,acetyl    C2H4           
 C2H4O,ethylen-o CH3CHO,ethanal  CH3COOH         OHCH2COOH       C2H5           
 C2H6            C2H5OH          CH3OCH3         CH3O2CH3        C2O            
 *C3             C3H3,1-propynl  C3H3,2-propynl  C3H4,allene     C3H4,propyne   
 C3H4,cyclo-     C3H5,allyl      C3H6,propylene  C3H6,cyclo-     C3H6O,propylox 
 C3H6O,acetone   C3H6O,propanal  C3H7,n-propyl   C3H7,i-propyl   C3H8           
 C3H8O,1propanol C3H8O,2propanol C3O2            *C4             C4H2,butadiyne 
 C4H4,1,3-cyclo- C4H6,butadiene  C4H6,1butyne    C4H6,2butyne    C4H6,cyclo-    
 C4H8,1-butene   C4H8,cis2-buten C4H8,tr2-butene C4H8,isobutene  C4H8,cyclo-    
 (CH3COOH)2      C4H9,n-butyl    C4H9,i-butyl    C4H9,s-butyl    C4H9,t-butyl   
 C4H10,n-butane  C4H10,isobutane *C5             C5H6,1,3cyclo-  C5H8,cyclo-    
 C5H10,1-pentene C5H10,cyclo-    C5H11,pentyl    C5H11,t-pentyl  C5H12,n-pentane
 C5H12,i-pentane CH3C(CH3)2CH3   C6H2            C6H5,phenyl     C6H5O,phenoxy  
 C6H6            C6H5OH,phenol   C6H10,cyclo-    C6H12,1-hexene  C6H12,cyclo-   
 C6H13,n-hexyl   C6H14,n-hexane  C7H7,benzyl     C7H8            C7H8O,cresol-mx
 C7H14,1-heptene C7H15,n-heptyl  C7H16,n-heptane C7H16,2-methylh C8H8,styrene   
 C8H10,ethylbenz C8H16,1-octene  C8H17,n-octyl   C8H18,n-octane  C8H18,isooctane
 C9H19,n-nonyl   C10H8,naphthale C10H21,n-decyl  C11H21          C12H9,o-bipheny
 C12H10,biphenyl HCO             HCCO            HCHO,formaldehy HCOOH          
 (HCOOH)2        O3              THDCPD,endo     THDCPD,exo      C(gr)          
 CH3OH(L)        C2H5OH(L)       C6H14(L),n-hexa C6H6(L)         H2O(cr)        
 H2O(L)         

 NOTE. WEIGHT FRACTION OF FUEL IN TOTAL FUELS AND OF OXIDANT IN TOTAL OXIDANTS